<edges>
    <!-- Horizontal edges in the first row -->
    <edge id="ab" from="a" to="b" priority="1" numLanes="1" speed="13.89"/>
    <edge id="ba" from="b" to="a" priority="1" numLanes="1" speed="13.89"/>
    <edge id="bc" from="b" to="c" priority="1" numLanes="1" speed="13.89"/>
    <edge id="cb" from="c" to="b" priority="1" numLanes="1" speed="13.89"/>

    <!-- Horizontal edges in the second row -->
    <edge id="de" from="d" to="e" priority="1" numLanes="1" speed="13.89"/>
    <edge id="ed" from="e" to="d" priority="1" numLanes="1" speed="13.89"/>
    <edge id="ef" from="e" to="f" priority="1" numLanes="1" speed="13.89"/>
    <edge id="fe" from="f" to="e" priority="1" numLanes="1" speed="13.89"/>

    <!-- Horizontal edges in the third row -->
    <edge id="gh" from="g" to="h" priority="1" numLanes="1" speed="13.89"/>
    <edge id="hg" from="h" to="g" priority="1" numLanes="1" speed="13.89"/>
    <edge id="hi" from="h" to="i" priority="1" numLanes="1" speed="13.89"/>
    <edge id="ih" from="i" to="h" priority="1" numLanes="1" speed="13.89"/>

    <!-- Vertical edges between the first and second rows -->
    <edge id="ad" from="a" to="d" priority="1" numLanes="1" speed="13.89"/>
    <edge id="da" from="d" to="a" priority="1" numLanes="1" speed="13.89"/>
    <edge id="be" from="b" to="e" priority="1" numLanes="1" speed="13.89"/>
    <edge id="eb" from="e" to="b" priority="1" numLanes="1" speed="13.89"/>
    <edge id="cf" from="c" to="f" priority="1" numLanes="1" speed="13.89"/>
    <edge id="fc" from="f" to="c" priority="1" numLanes="1" speed="13.89"/>

    <!-- Vertical edges between the second and third rows -->
    <edge id="dg" from="d" to="g" priority="1" numLanes="1" speed="13.89"/>
    <edge id="gd" from="g" to="d" priority="1" numLanes="1" speed="13.89"/>
    <edge id="eh" from="e" to="h" priority="1" numLanes="1" speed="13.89"/>
    <edge id="he" from="h" to="e" priority="1" numLanes="1" speed="13.89"/>
    <edge id="fi" from="f" to="i" priority="1" numLanes="1" speed="13.89"/>
    <edge id="if" from="i" to="f" priority="1" numLanes="1" speed="13.89"/>
</edges>