<nodes>
    <!-- First Row -->
    <node id="a" x="0.0" y="100.0" />
    <node id="b" x="50.0" y="100.0" type="traffic_light"/>
    <node id="c" x="100.0" y="100.0" />

    <!-- Second Row -->
    <node id="d" x="0.0" y="50.0" type="traffic_light"/>
    <node id="e" x="50.0" y="50.0" type="traffic_light"/>
    <node id="f" x="100.0" y="50.0" type="traffic_light"/>

    <!-- Third Row -->
    <node id="g" x="0.0" y="0.0" />
    <node id="h" x="50.0" y="0.0" type="traffic_light"/>
    <node id="i" x="100.0" y="0.0" />
</nodes>