<?xml version="1.0" encoding="UTF-8"?>

<!-- generated on 2025-02-12 16:34:03 by Eclipse SUMO duarouter Version 1.21.0
<duarouterConfiguration xmlns:xsi="http://www.w3.org/2001/XMLSchema-instance" xsi:noNamespaceSchemaLocation="http://sumo.dlr.de/xsd/duarouterConfiguration.xsd">

    <input>
        <net-file value="Simulation Files/grid4by4.net.xml"/>
        <route-files value="Simulation Files/randomTrips.trips.xml"/>
    </input>

    <output>
        <output-file value="Simulation Files/randomRoutes.rou.xml"/>
    </output>

</duarouterConfiguration>
-->

<routes xmlns:xsi="http://www.w3.org/2001/XMLSchema-instance" xsi:noNamespaceSchemaLocation="http://sumo.dlr.de/xsd/routes_file.xsd">
    <vehicle id="0" depart="0.00">
        <route edges="pl lh hl"/>
    </vehicle>
    <vehicle id="1" depart="2.00">
        <route edges="pl lk kl"/>
    </vehicle>
    <vehicle id="2" depart="4.00">
        <route edges="kj jf fg gk"/>
    </vehicle>
    <vehicle id="3" depart="6.00">
        <route edges="lk kl lh"/>
    </vehicle>
    <vehicle id="4" depart="8.00">
        <route edges="bf fg gk"/>
    </vehicle>
    <vehicle id="5" depart="10.00">
        <route edges="fe ei ij jk ko"/>
    </vehicle>
    <vehicle id="6" depart="12.00">
        <route edges="cb bf fe ea"/>
    </vehicle>
    <vehicle id="7" depart="14.00">
        <route edges="on nj ji im mn"/>
    </vehicle>
    <vehicle id="8" depart="16.00">
        <route edges="nm mi ij ji"/>
    </vehicle>
    <vehicle id="9" depart="18.00">
        <route edges="ef fj jn nj"/>
    </vehicle>
    <vehicle id="10" depart="20.00">
        <route edges="on nj ji im mn"/>
    </vehicle>
    <vehicle id="11" depart="22.00">
        <route edges="fb bc cg gh hd dc"/>
    </vehicle>
    <vehicle id="12" depart="24.00">
        <route edges="nj jf fg gk"/>
    </vehicle>
    <vehicle id="13" depart="26.00">
        <route edges="lk kj jk"/>
    </vehicle>
    <vehicle id="14" depart="28.00">
        <route edges="mn nm mi"/>
    </vehicle>
    <vehicle id="15" depart="30.00">
        <route edges="mi ij jk kl lh"/>
    </vehicle>
    <vehicle id="16" depart="32.00">
        <route edges="lk kj jf fb bc"/>
    </vehicle>
    <vehicle id="17" depart="34.00">
        <route edges="no ok kg gf fe ei"/>
    </vehicle>
    <vehicle id="18" depart="36.00">
        <route edges="nm mi ij jk kl lp po"/>
    </vehicle>
    <vehicle id="19" depart="38.00">
        <route edges="ie ea ab bc"/>
    </vehicle>
    <vehicle id="20" depart="40.00">
        <route edges="gk kg"/>
    </vehicle>
    <vehicle id="21" depart="42.00">
        <route edges="hg gf fb"/>
    </vehicle>
    <vehicle id="22" depart="44.00">
        <route edges="on nj jk kl lp"/>
    </vehicle>
    <vehicle id="23" depart="46.00">
        <route edges="fe ef fg"/>
    </vehicle>
    <vehicle id="24" depart="48.00">
        <route edges="mn nj jn"/>
    </vehicle>
    <vehicle id="25" depart="50.00">
        <route edges="ab bf fj ji im"/>
    </vehicle>
    <vehicle id="26" depart="52.00">
        <route edges="gk kj ji ie ea"/>
    </vehicle>
    <vehicle id="27" depart="54.00">
        <route edges="ba ae ea ab"/>
    </vehicle>
    <vehicle id="28" depart="56.00">
        <route edges="lp po ok kj ji"/>
    </vehicle>
    <vehicle id="29" depart="58.00">
        <route edges="nm mi ie ef fg"/>
    </vehicle>
    <vehicle id="30" depart="60.00">
        <route edges="mi ij jk kj"/>
    </vehicle>
    <vehicle id="31" depart="62.00">
        <route edges="cg gk kl"/>
    </vehicle>
    <vehicle id="32" depart="64.00">
        <route edges="cb ba ae ef"/>
    </vehicle>
    <vehicle id="33" depart="66.00">
        <route edges="hl lk kj jf fb ba"/>
    </vehicle>
    <vehicle id="34" depart="68.00">
        <route edges="jf fj jn"/>
    </vehicle>
    <vehicle id="35" depart="70.00">
        <route edges="jn nm mi ie ef"/>
    </vehicle>
    <vehicle id="36" depart="72.00">
        <route edges="dh hg gf fe ea"/>
    </vehicle>
    <vehicle id="37" depart="74.00">
        <route edges="op pl lk kj ji"/>
    </vehicle>
    <vehicle id="38" depart="76.00">
        <route edges="dc cb ba ae ei im mn"/>
    </vehicle>
    <vehicle id="39" depart="78.00">
        <route edges="on nj jf fg gh hd"/>
    </vehicle>
    <vehicle id="40" depart="80.00">
        <route edges="bc cg gk kl"/>
    </vehicle>
    <vehicle id="41" depart="82.00">
        <route edges="hg gh hd"/>
    </vehicle>
    <vehicle id="42" depart="84.00">
        <route edges="fg gc cb bf"/>
    </vehicle>
    <vehicle id="43" depart="86.00">
        <route edges="ij jf fb"/>
    </vehicle>
    <vehicle id="44" depart="88.00">
        <route edges="im mn nj jf fj"/>
    </vehicle>
    <vehicle id="45" depart="90.00">
        <route edges="kg gc cb ba ae"/>
    </vehicle>
    <vehicle id="46" depart="92.00">
        <route edges="ij jf"/>
    </vehicle>
    <vehicle id="47" depart="94.00">
        <route edges="ok kg"/>
    </vehicle>
    <vehicle id="48" depart="96.00">
        <route edges="dc cg gk kj"/>
    </vehicle>
    <vehicle id="49" depart="98.00">
        <route edges="fj jk kg gc cb"/>
    </vehicle>
</routes>
