<?xml version="1.0" encoding="UTF-8"?>

<!-- generated on 2025-02-12 16:34:02.994075 by randomTrips.py UNKNOWN
<configuration>
    <net-file value="Simulation Files/grid4by4.net.xml"/>
    <output-trip-file value="Simulation Files/randomTrips.trips.xml"/>
    <seed value="4330"/>
    <end value="100.0"/>
    <period value="2.0"/>
</configuration>
-->

<routes xmlns:xsi="http://www.w3.org/2001/XMLSchema-instance" xsi:noNamespaceSchemaLocation="http://sumo.dlr.de/xsd/routes_file.xsd">
    <trip id="0" depart="0.00" from="pl" to="hl"/>
    <trip id="1" depart="2.00" from="pl" to="kl"/>
    <trip id="2" depart="4.00" from="kj" to="gk"/>
    <trip id="3" depart="6.00" from="lk" to="lh"/>
    <trip id="4" depart="8.00" from="bf" to="gk"/>
    <trip id="5" depart="10.00" from="fe" to="ko"/>
    <trip id="6" depart="12.00" from="cb" to="ea"/>
    <trip id="7" depart="14.00" from="on" to="mn"/>
    <trip id="8" depart="16.00" from="nm" to="ji"/>
    <trip id="9" depart="18.00" from="ef" to="nj"/>
    <trip id="10" depart="20.00" from="on" to="mn"/>
    <trip id="11" depart="22.00" from="fb" to="dc"/>
    <trip id="12" depart="24.00" from="nj" to="gk"/>
    <trip id="13" depart="26.00" from="lk" to="jk"/>
    <trip id="14" depart="28.00" from="mn" to="mi"/>
    <trip id="15" depart="30.00" from="mi" to="lh"/>
    <trip id="16" depart="32.00" from="lk" to="bc"/>
    <trip id="17" depart="34.00" from="no" to="ei"/>
    <trip id="18" depart="36.00" from="nm" to="po"/>
    <trip id="19" depart="38.00" from="ie" to="bc"/>
    <trip id="20" depart="40.00" from="gk" to="kg"/>
    <trip id="21" depart="42.00" from="hg" to="fb"/>
    <trip id="22" depart="44.00" from="on" to="lp"/>
    <trip id="23" depart="46.00" from="fe" to="fg"/>
    <trip id="24" depart="48.00" from="mn" to="jn"/>
    <trip id="25" depart="50.00" from="ab" to="im"/>
    <trip id="26" depart="52.00" from="gk" to="ea"/>
    <trip id="27" depart="54.00" from="ba" to="ab"/>
    <trip id="28" depart="56.00" from="lp" to="ji"/>
    <trip id="29" depart="58.00" from="nm" to="fg"/>
    <trip id="30" depart="60.00" from="mi" to="kj"/>
    <trip id="31" depart="62.00" from="cg" to="kl"/>
    <trip id="32" depart="64.00" from="cb" to="ef"/>
    <trip id="33" depart="66.00" from="hl" to="ba"/>
    <trip id="34" depart="68.00" from="jf" to="jn"/>
    <trip id="35" depart="70.00" from="jn" to="ef"/>
    <trip id="36" depart="72.00" from="dh" to="ea"/>
    <trip id="37" depart="74.00" from="op" to="ji"/>
    <trip id="38" depart="76.00" from="dc" to="mn"/>
    <trip id="39" depart="78.00" from="on" to="hd"/>
    <trip id="40" depart="80.00" from="bc" to="kl"/>
    <trip id="41" depart="82.00" from="hg" to="hd"/>
    <trip id="42" depart="84.00" from="fg" to="bf"/>
    <trip id="43" depart="86.00" from="ij" to="fb"/>
    <trip id="44" depart="88.00" from="im" to="fj"/>
    <trip id="45" depart="90.00" from="kg" to="ae"/>
    <trip id="46" depart="92.00" from="ij" to="jf"/>
    <trip id="47" depart="94.00" from="ok" to="kg"/>
    <trip id="48" depart="96.00" from="dc" to="kj"/>
    <trip id="49" depart="98.00" from="fj" to="cb"/>
</routes>
