<?xml version="1.0" encoding="UTF-8"?>

<!-- generated on 2024-12-13 19:49:18 by Eclipse SUMO netconvert Version v1_21_0+1300-66ed36aff3d
<netconvertConfiguration xmlns:xsi="http://www.w3.org/2001/XMLSchema-instance" xsi:noNamespaceSchemaLocation="http://sumo.dlr.de/xsd/netconvertConfiguration.xsd">

    <input>
        <node-files value="f.nod.xml"/>
        <edge-files value="f.edg.xml"/>
    </input>

    <output>
        <output-file value="simple_network.net.xml"/>
    </output>

</netconvertConfiguration>
-->

<net version="1.20" junctionCornerDetail="5" limitTurnSpeed="5.50" xmlns:xsi="http://www.w3.org/2001/XMLSchema-instance" xsi:noNamespaceSchemaLocation="http://sumo.dlr.de/xsd/net_file.xsd">

    <location netOffset="0.00,0.00" convBoundary="0.00,0.00,150.00,150.00" origBoundary="0.00,0.00,150.00,150.00" projParameter="!"/>

    <edge id=":a_0" function="internal">
        <lane id=":a_0_0" index="0" speed="6.08" length="7.74" shape="3.20,151.60 1.10,151.30 -0.40,150.40 -1.30,148.90 -1.60,146.80"/>
    </edge>
    <edge id=":a_1" function="internal">
        <lane id=":a_1_0" index="0" speed="3.90" length="2.58" shape="1.60,146.80 1.70,147.50 2.00,148.00 2.50,148.30 3.20,148.40"/>
    </edge>
    <edge id=":b_0" function="internal">
        <lane id=":b_0_0" index="0" speed="13.89" length="14.40" shape="57.20,151.60 42.80,151.60"/>
    </edge>
    <edge id=":b_1" function="internal">
        <lane id=":b_1_0" index="0" speed="8.00" length="4.07" shape="57.20,151.60 53.35,151.05 53.20,150.96"/>
    </edge>
    <edge id=":b_2" function="internal">
        <lane id=":b_2_0" index="0" speed="3.65" length="1.44" shape="57.20,151.60 56.00,150.80"/>
    </edge>
    <edge id=":b_9" function="internal">
        <lane id=":b_9_0" index="0" speed="8.00" length="10.13" shape="53.20,150.96 50.60,149.40 48.95,146.65 48.40,142.80"/>
    </edge>
    <edge id=":b_10" function="internal">
        <lane id=":b_10_0" index="0" speed="3.65" length="3.23" shape="56.00,150.80 55.60,150.00 56.00,149.20 57.20,148.40"/>
    </edge>
    <edge id=":b_3" function="internal">
        <lane id=":b_3_0" index="0" speed="6.51" length="9.03" shape="51.60,142.80 51.95,145.25 53.00,147.00 54.75,148.05 57.20,148.40"/>
    </edge>
    <edge id=":b_4" function="internal">
        <lane id=":b_4_0" index="0" speed="8.00" length="14.19" shape="51.60,142.80 51.05,146.65 49.40,149.40 46.65,151.05 42.80,151.60"/>
    </edge>
    <edge id=":b_5" function="internal">
        <lane id=":b_5_0" index="0" speed="3.65" length="1.44" shape="51.60,142.80 50.80,144.00"/>
    </edge>
    <edge id=":b_11" function="internal">
        <lane id=":b_11_0" index="0" speed="3.65" length="3.23" shape="50.80,144.00 50.00,144.40 49.20,144.00 48.40,142.80"/>
    </edge>
    <edge id=":b_6" function="internal">
        <lane id=":b_6_0" index="0" speed="6.51" length="9.03" shape="42.80,148.40 45.25,148.05 47.00,147.00 48.05,145.25 48.40,142.80"/>
    </edge>
    <edge id=":b_7" function="internal">
        <lane id=":b_7_0" index="0" speed="13.89" length="14.40" shape="42.80,148.40 57.20,148.40"/>
    </edge>
    <edge id=":b_8" function="internal">
        <lane id=":b_8_0" index="0" speed="3.65" length="1.44" shape="42.80,148.40 44.00,149.20"/>
    </edge>
    <edge id=":b_12" function="internal">
        <lane id=":b_12_0" index="0" speed="3.65" length="3.23" shape="44.00,149.20 44.40,150.00 44.00,150.80 42.80,151.60"/>
    </edge>
    <edge id=":c_0" function="internal">
        <lane id=":c_0_0" index="0" speed="13.89" length="14.40" shape="107.20,151.60 92.80,151.60"/>
    </edge>
    <edge id=":c_1" function="internal">
        <lane id=":c_1_0" index="0" speed="8.00" length="4.07" shape="107.20,151.60 103.35,151.05 103.20,150.96"/>
    </edge>
    <edge id=":c_2" function="internal">
        <lane id=":c_2_0" index="0" speed="3.65" length="1.44" shape="107.20,151.60 106.00,150.80"/>
    </edge>
    <edge id=":c_9" function="internal">
        <lane id=":c_9_0" index="0" speed="8.00" length="10.13" shape="103.20,150.96 100.60,149.40 98.95,146.65 98.40,142.80"/>
    </edge>
    <edge id=":c_10" function="internal">
        <lane id=":c_10_0" index="0" speed="3.65" length="3.23" shape="106.00,150.80 105.60,150.00 106.00,149.20 107.20,148.40"/>
    </edge>
    <edge id=":c_3" function="internal">
        <lane id=":c_3_0" index="0" speed="6.51" length="9.03" shape="101.60,142.80 101.95,145.25 103.00,147.00 104.75,148.05 107.20,148.40"/>
    </edge>
    <edge id=":c_4" function="internal">
        <lane id=":c_4_0" index="0" speed="8.00" length="14.19" shape="101.60,142.80 101.05,146.65 99.40,149.40 96.65,151.05 92.80,151.60"/>
    </edge>
    <edge id=":c_5" function="internal">
        <lane id=":c_5_0" index="0" speed="3.65" length="1.44" shape="101.60,142.80 100.80,144.00"/>
    </edge>
    <edge id=":c_11" function="internal">
        <lane id=":c_11_0" index="0" speed="3.65" length="3.23" shape="100.80,144.00 100.00,144.40 99.20,144.00 98.40,142.80"/>
    </edge>
    <edge id=":c_6" function="internal">
        <lane id=":c_6_0" index="0" speed="6.51" length="9.03" shape="92.80,148.40 95.25,148.05 97.00,147.00 98.05,145.25 98.40,142.80"/>
    </edge>
    <edge id=":c_7" function="internal">
        <lane id=":c_7_0" index="0" speed="13.89" length="14.40" shape="92.80,148.40 107.20,148.40"/>
    </edge>
    <edge id=":c_8" function="internal">
        <lane id=":c_8_0" index="0" speed="3.65" length="1.44" shape="92.80,148.40 94.00,149.20"/>
    </edge>
    <edge id=":c_12" function="internal">
        <lane id=":c_12_0" index="0" speed="3.65" length="3.23" shape="94.00,149.20 94.40,150.00 94.00,150.80 92.80,151.60"/>
    </edge>
    <edge id=":d_0" function="internal">
        <lane id=":d_0_0" index="0" speed="6.08" length="7.74" shape="151.60,146.80 151.30,148.90 150.40,150.40 148.90,151.30 146.80,151.60"/>
    </edge>
    <edge id=":d_1" function="internal">
        <lane id=":d_1_0" index="0" speed="3.90" length="2.58" shape="146.80,148.40 147.50,148.30 148.00,148.00 148.30,147.50 148.40,146.80"/>
    </edge>
    <edge id=":e_0" function="internal">
        <lane id=":e_0_0" index="0" speed="13.89" length="14.40" shape="-1.60,107.20 -1.60,92.80"/>
    </edge>
    <edge id=":e_1" function="internal">
        <lane id=":e_1_0" index="0" speed="8.00" length="4.07" shape="-1.60,107.20 -1.05,103.35 -0.96,103.20"/>
    </edge>
    <edge id=":e_2" function="internal">
        <lane id=":e_2_0" index="0" speed="3.65" length="1.44" shape="-1.60,107.20 -0.80,106.00"/>
    </edge>
    <edge id=":e_9" function="internal">
        <lane id=":e_9_0" index="0" speed="8.00" length="10.13" shape="-0.96,103.20 0.60,100.60 3.35,98.95 7.20,98.40"/>
    </edge>
    <edge id=":e_10" function="internal">
        <lane id=":e_10_0" index="0" speed="3.65" length="3.23" shape="-0.80,106.00 0.00,105.60 0.80,106.00 1.60,107.20"/>
    </edge>
    <edge id=":e_3" function="internal">
        <lane id=":e_3_0" index="0" speed="6.51" length="9.03" shape="7.20,101.60 4.75,101.95 3.00,103.00 1.95,104.75 1.60,107.20"/>
    </edge>
    <edge id=":e_4" function="internal">
        <lane id=":e_4_0" index="0" speed="8.00" length="14.19" shape="7.20,101.60 3.35,101.05 0.60,99.40 -1.05,96.65 -1.60,92.80"/>
    </edge>
    <edge id=":e_5" function="internal">
        <lane id=":e_5_0" index="0" speed="3.65" length="1.44" shape="7.20,101.60 6.00,100.80"/>
    </edge>
    <edge id=":e_11" function="internal">
        <lane id=":e_11_0" index="0" speed="3.65" length="3.23" shape="6.00,100.80 5.60,100.00 6.00,99.20 7.20,98.40"/>
    </edge>
    <edge id=":e_6" function="internal">
        <lane id=":e_6_0" index="0" speed="6.51" length="9.03" shape="1.60,92.80 1.95,95.25 3.00,97.00 4.75,98.05 7.20,98.40"/>
    </edge>
    <edge id=":e_7" function="internal">
        <lane id=":e_7_0" index="0" speed="13.89" length="14.40" shape="1.60,92.80 1.60,107.20"/>
    </edge>
    <edge id=":e_8" function="internal">
        <lane id=":e_8_0" index="0" speed="3.65" length="1.44" shape="1.60,92.80 0.80,94.00"/>
    </edge>
    <edge id=":e_12" function="internal">
        <lane id=":e_12_0" index="0" speed="3.65" length="3.23" shape="0.80,94.00 0.00,94.40 -0.80,94.00 -1.60,92.80"/>
    </edge>
    <edge id=":f_0" function="internal">
        <lane id=":f_0_0" index="0" speed="6.51" length="9.03" shape="48.40,107.20 48.05,104.75 47.00,103.00 45.25,101.95 42.80,101.60"/>
    </edge>
    <edge id=":f_1" function="internal">
        <lane id=":f_1_0" index="0" speed="13.89" length="14.40" shape="48.40,107.20 48.40,92.80"/>
    </edge>
    <edge id=":f_2" function="internal">
        <lane id=":f_2_0" index="0" speed="8.00" length="4.07" shape="48.40,107.20 48.95,103.35 49.04,103.20"/>
    </edge>
    <edge id=":f_3" function="internal">
        <lane id=":f_3_0" index="0" speed="3.65" length="1.44" shape="48.40,107.20 49.20,106.00"/>
    </edge>
    <edge id=":f_16" function="internal">
        <lane id=":f_16_0" index="0" speed="8.00" length="10.13" shape="49.04,103.20 50.60,100.60 53.35,98.95 57.20,98.40"/>
    </edge>
    <edge id=":f_17" function="internal">
        <lane id=":f_17_0" index="0" speed="3.65" length="3.23" shape="49.20,106.00 50.00,105.60 50.80,106.00 51.60,107.20"/>
    </edge>
    <edge id=":f_4" function="internal">
        <lane id=":f_4_0" index="0" speed="6.51" length="9.03" shape="57.20,101.60 54.75,101.95 53.00,103.00 51.95,104.75 51.60,107.20"/>
    </edge>
    <edge id=":f_5" function="internal">
        <lane id=":f_5_0" index="0" speed="13.89" length="14.40" shape="57.20,101.60 42.80,101.60"/>
    </edge>
    <edge id=":f_6" function="internal">
        <lane id=":f_6_0" index="0" speed="8.00" length="4.07" shape="57.20,101.60 53.35,101.05 53.20,100.96"/>
    </edge>
    <edge id=":f_7" function="internal">
        <lane id=":f_7_0" index="0" speed="3.65" length="1.44" shape="57.20,101.60 56.00,100.80"/>
    </edge>
    <edge id=":f_18" function="internal">
        <lane id=":f_18_0" index="0" speed="8.00" length="10.13" shape="53.20,100.96 50.60,99.40 48.95,96.65 48.40,92.80"/>
    </edge>
    <edge id=":f_19" function="internal">
        <lane id=":f_19_0" index="0" speed="3.65" length="3.23" shape="56.00,100.80 55.60,100.00 56.00,99.20 57.20,98.40"/>
    </edge>
    <edge id=":f_8" function="internal">
        <lane id=":f_8_0" index="0" speed="6.51" length="9.03" shape="51.60,92.80 51.95,95.25 53.00,97.00 54.75,98.05 57.20,98.40"/>
    </edge>
    <edge id=":f_9" function="internal">
        <lane id=":f_9_0" index="0" speed="13.89" length="14.40" shape="51.60,92.80 51.60,107.20"/>
    </edge>
    <edge id=":f_10" function="internal">
        <lane id=":f_10_0" index="0" speed="8.00" length="4.07" shape="51.60,92.80 51.05,96.65 50.96,96.80"/>
    </edge>
    <edge id=":f_11" function="internal">
        <lane id=":f_11_0" index="0" speed="3.65" length="1.44" shape="51.60,92.80 50.80,94.00"/>
    </edge>
    <edge id=":f_20" function="internal">
        <lane id=":f_20_0" index="0" speed="8.00" length="10.13" shape="50.96,96.80 49.40,99.40 46.65,101.05 42.80,101.60"/>
    </edge>
    <edge id=":f_21" function="internal">
        <lane id=":f_21_0" index="0" speed="3.65" length="3.23" shape="50.80,94.00 50.00,94.40 49.20,94.00 48.40,92.80"/>
    </edge>
    <edge id=":f_12" function="internal">
        <lane id=":f_12_0" index="0" speed="6.51" length="9.03" shape="42.80,98.40 45.25,98.05 47.00,97.00 48.05,95.25 48.40,92.80"/>
    </edge>
    <edge id=":f_13" function="internal">
        <lane id=":f_13_0" index="0" speed="13.89" length="14.40" shape="42.80,98.40 57.20,98.40"/>
    </edge>
    <edge id=":f_14" function="internal">
        <lane id=":f_14_0" index="0" speed="8.00" length="4.07" shape="42.80,98.40 46.65,98.95 46.80,99.04"/>
    </edge>
    <edge id=":f_15" function="internal">
        <lane id=":f_15_0" index="0" speed="3.65" length="1.44" shape="42.80,98.40 44.00,99.20"/>
    </edge>
    <edge id=":f_22" function="internal">
        <lane id=":f_22_0" index="0" speed="8.00" length="10.13" shape="46.80,99.04 49.40,100.60 51.05,103.35 51.60,107.20"/>
    </edge>
    <edge id=":f_23" function="internal">
        <lane id=":f_23_0" index="0" speed="3.65" length="3.23" shape="44.00,99.20 44.40,100.00 44.00,100.80 42.80,101.60"/>
    </edge>
    <edge id=":g_0" function="internal">
        <lane id=":g_0_0" index="0" speed="6.51" length="9.03" shape="98.40,107.20 98.05,104.75 97.00,103.00 95.25,101.95 92.80,101.60"/>
    </edge>
    <edge id=":g_1" function="internal">
        <lane id=":g_1_0" index="0" speed="13.89" length="14.40" shape="98.40,107.20 98.40,92.80"/>
    </edge>
    <edge id=":g_2" function="internal">
        <lane id=":g_2_0" index="0" speed="8.00" length="4.07" shape="98.40,107.20 98.95,103.35 99.04,103.20"/>
    </edge>
    <edge id=":g_3" function="internal">
        <lane id=":g_3_0" index="0" speed="3.65" length="1.44" shape="98.40,107.20 99.20,106.00"/>
    </edge>
    <edge id=":g_16" function="internal">
        <lane id=":g_16_0" index="0" speed="8.00" length="10.13" shape="99.04,103.20 100.60,100.60 103.35,98.95 107.20,98.40"/>
    </edge>
    <edge id=":g_17" function="internal">
        <lane id=":g_17_0" index="0" speed="3.65" length="3.23" shape="99.20,106.00 100.00,105.60 100.80,106.00 101.60,107.20"/>
    </edge>
    <edge id=":g_4" function="internal">
        <lane id=":g_4_0" index="0" speed="6.51" length="9.03" shape="107.20,101.60 104.75,101.95 103.00,103.00 101.95,104.75 101.60,107.20"/>
    </edge>
    <edge id=":g_5" function="internal">
        <lane id=":g_5_0" index="0" speed="13.89" length="14.40" shape="107.20,101.60 92.80,101.60"/>
    </edge>
    <edge id=":g_6" function="internal">
        <lane id=":g_6_0" index="0" speed="8.00" length="4.07" shape="107.20,101.60 103.35,101.05 103.20,100.96"/>
    </edge>
    <edge id=":g_7" function="internal">
        <lane id=":g_7_0" index="0" speed="3.65" length="1.44" shape="107.20,101.60 106.00,100.80"/>
    </edge>
    <edge id=":g_18" function="internal">
        <lane id=":g_18_0" index="0" speed="8.00" length="10.13" shape="103.20,100.96 100.60,99.40 98.95,96.65 98.40,92.80"/>
    </edge>
    <edge id=":g_19" function="internal">
        <lane id=":g_19_0" index="0" speed="3.65" length="3.23" shape="106.00,100.80 105.60,100.00 106.00,99.20 107.20,98.40"/>
    </edge>
    <edge id=":g_8" function="internal">
        <lane id=":g_8_0" index="0" speed="6.51" length="9.03" shape="101.60,92.80 101.95,95.25 103.00,97.00 104.75,98.05 107.20,98.40"/>
    </edge>
    <edge id=":g_9" function="internal">
        <lane id=":g_9_0" index="0" speed="13.89" length="14.40" shape="101.60,92.80 101.60,107.20"/>
    </edge>
    <edge id=":g_10" function="internal">
        <lane id=":g_10_0" index="0" speed="8.00" length="4.07" shape="101.60,92.80 101.05,96.65 100.96,96.80"/>
    </edge>
    <edge id=":g_11" function="internal">
        <lane id=":g_11_0" index="0" speed="3.65" length="1.44" shape="101.60,92.80 100.80,94.00"/>
    </edge>
    <edge id=":g_20" function="internal">
        <lane id=":g_20_0" index="0" speed="8.00" length="10.13" shape="100.96,96.80 99.40,99.40 96.65,101.05 92.80,101.60"/>
    </edge>
    <edge id=":g_21" function="internal">
        <lane id=":g_21_0" index="0" speed="3.65" length="3.23" shape="100.80,94.00 100.00,94.40 99.20,94.00 98.40,92.80"/>
    </edge>
    <edge id=":g_12" function="internal">
        <lane id=":g_12_0" index="0" speed="6.51" length="9.03" shape="92.80,98.40 95.25,98.05 97.00,97.00 98.05,95.25 98.40,92.80"/>
    </edge>
    <edge id=":g_13" function="internal">
        <lane id=":g_13_0" index="0" speed="13.89" length="14.40" shape="92.80,98.40 107.20,98.40"/>
    </edge>
    <edge id=":g_14" function="internal">
        <lane id=":g_14_0" index="0" speed="8.00" length="4.07" shape="92.80,98.40 96.65,98.95 96.80,99.04"/>
    </edge>
    <edge id=":g_15" function="internal">
        <lane id=":g_15_0" index="0" speed="3.65" length="1.44" shape="92.80,98.40 94.00,99.20"/>
    </edge>
    <edge id=":g_22" function="internal">
        <lane id=":g_22_0" index="0" speed="8.00" length="10.13" shape="96.80,99.04 99.40,100.60 101.05,103.35 101.60,107.20"/>
    </edge>
    <edge id=":g_23" function="internal">
        <lane id=":g_23_0" index="0" speed="3.65" length="3.23" shape="94.00,99.20 94.40,100.00 94.00,100.80 92.80,101.60"/>
    </edge>
    <edge id=":h_0" function="internal">
        <lane id=":h_0_0" index="0" speed="6.51" length="9.03" shape="148.40,107.20 148.05,104.75 147.00,103.00 145.25,101.95 142.80,101.60"/>
    </edge>
    <edge id=":h_1" function="internal">
        <lane id=":h_1_0" index="0" speed="13.89" length="14.40" shape="148.40,107.20 148.40,92.80"/>
    </edge>
    <edge id=":h_2" function="internal">
        <lane id=":h_2_0" index="0" speed="3.65" length="1.44" shape="148.40,107.20 149.20,106.00"/>
    </edge>
    <edge id=":h_9" function="internal">
        <lane id=":h_9_0" index="0" speed="3.65" length="3.23" shape="149.20,106.00 150.00,105.60 150.80,106.00 151.60,107.20"/>
    </edge>
    <edge id=":h_3" function="internal">
        <lane id=":h_3_0" index="0" speed="13.89" length="14.40" shape="151.60,92.80 151.60,107.20"/>
    </edge>
    <edge id=":h_4" function="internal">
        <lane id=":h_4_0" index="0" speed="8.00" length="4.07" shape="151.60,92.80 151.05,96.65 150.96,96.80"/>
    </edge>
    <edge id=":h_5" function="internal">
        <lane id=":h_5_0" index="0" speed="3.65" length="1.44" shape="151.60,92.80 150.80,94.00"/>
    </edge>
    <edge id=":h_10" function="internal">
        <lane id=":h_10_0" index="0" speed="8.00" length="10.13" shape="150.96,96.80 149.40,99.40 146.65,101.05 142.80,101.60"/>
    </edge>
    <edge id=":h_11" function="internal">
        <lane id=":h_11_0" index="0" speed="3.65" length="3.23" shape="150.80,94.00 150.00,94.40 149.20,94.00 148.40,92.80"/>
    </edge>
    <edge id=":h_6" function="internal">
        <lane id=":h_6_0" index="0" speed="6.51" length="9.03" shape="142.80,98.40 145.25,98.05 147.00,97.00 148.05,95.25 148.40,92.80"/>
    </edge>
    <edge id=":h_7" function="internal">
        <lane id=":h_7_0" index="0" speed="8.00" length="14.19" shape="142.80,98.40 146.65,98.95 149.40,100.60 151.05,103.35 151.60,107.20"/>
    </edge>
    <edge id=":h_8" function="internal">
        <lane id=":h_8_0" index="0" speed="3.65" length="1.44" shape="142.80,98.40 144.00,99.20"/>
    </edge>
    <edge id=":h_12" function="internal">
        <lane id=":h_12_0" index="0" speed="3.65" length="3.23" shape="144.00,99.20 144.40,100.00 144.00,100.80 142.80,101.60"/>
    </edge>
    <edge id=":i_0" function="internal">
        <lane id=":i_0_0" index="0" speed="13.89" length="14.40" shape="-1.60,57.20 -1.60,42.80"/>
    </edge>
    <edge id=":i_1" function="internal">
        <lane id=":i_1_0" index="0" speed="8.00" length="4.07" shape="-1.60,57.20 -1.05,53.35 -0.96,53.20"/>
    </edge>
    <edge id=":i_2" function="internal">
        <lane id=":i_2_0" index="0" speed="3.65" length="1.44" shape="-1.60,57.20 -0.80,56.00"/>
    </edge>
    <edge id=":i_9" function="internal">
        <lane id=":i_9_0" index="0" speed="8.00" length="10.13" shape="-0.96,53.20 0.60,50.60 3.35,48.95 7.20,48.40"/>
    </edge>
    <edge id=":i_10" function="internal">
        <lane id=":i_10_0" index="0" speed="3.65" length="3.23" shape="-0.80,56.00 0.00,55.60 0.80,56.00 1.60,57.20"/>
    </edge>
    <edge id=":i_3" function="internal">
        <lane id=":i_3_0" index="0" speed="6.51" length="9.03" shape="7.20,51.60 4.75,51.95 3.00,53.00 1.95,54.75 1.60,57.20"/>
    </edge>
    <edge id=":i_4" function="internal">
        <lane id=":i_4_0" index="0" speed="8.00" length="14.19" shape="7.20,51.60 3.35,51.05 0.60,49.40 -1.05,46.65 -1.60,42.80"/>
    </edge>
    <edge id=":i_5" function="internal">
        <lane id=":i_5_0" index="0" speed="3.65" length="1.44" shape="7.20,51.60 6.00,50.80"/>
    </edge>
    <edge id=":i_11" function="internal">
        <lane id=":i_11_0" index="0" speed="3.65" length="3.23" shape="6.00,50.80 5.60,50.00 6.00,49.20 7.20,48.40"/>
    </edge>
    <edge id=":i_6" function="internal">
        <lane id=":i_6_0" index="0" speed="6.51" length="9.03" shape="1.60,42.80 1.95,45.25 3.00,47.00 4.75,48.05 7.20,48.40"/>
    </edge>
    <edge id=":i_7" function="internal">
        <lane id=":i_7_0" index="0" speed="13.89" length="14.40" shape="1.60,42.80 1.60,57.20"/>
    </edge>
    <edge id=":i_8" function="internal">
        <lane id=":i_8_0" index="0" speed="3.65" length="1.44" shape="1.60,42.80 0.80,44.00"/>
    </edge>
    <edge id=":i_12" function="internal">
        <lane id=":i_12_0" index="0" speed="3.65" length="3.23" shape="0.80,44.00 0.00,44.40 -0.80,44.00 -1.60,42.80"/>
    </edge>
    <edge id=":j_0" function="internal">
        <lane id=":j_0_0" index="0" speed="6.51" length="9.03" shape="48.40,57.20 48.05,54.75 47.00,53.00 45.25,51.95 42.80,51.60"/>
    </edge>
    <edge id=":j_1" function="internal">
        <lane id=":j_1_0" index="0" speed="13.89" length="14.40" shape="48.40,57.20 48.40,42.80"/>
    </edge>
    <edge id=":j_2" function="internal">
        <lane id=":j_2_0" index="0" speed="8.00" length="4.07" shape="48.40,57.20 48.95,53.35 49.04,53.20"/>
    </edge>
    <edge id=":j_3" function="internal">
        <lane id=":j_3_0" index="0" speed="3.65" length="1.44" shape="48.40,57.20 49.20,56.00"/>
    </edge>
    <edge id=":j_16" function="internal">
        <lane id=":j_16_0" index="0" speed="8.00" length="10.13" shape="49.04,53.20 50.60,50.60 53.35,48.95 57.20,48.40"/>
    </edge>
    <edge id=":j_17" function="internal">
        <lane id=":j_17_0" index="0" speed="3.65" length="3.23" shape="49.20,56.00 50.00,55.60 50.80,56.00 51.60,57.20"/>
    </edge>
    <edge id=":j_4" function="internal">
        <lane id=":j_4_0" index="0" speed="6.51" length="9.03" shape="57.20,51.60 54.75,51.95 53.00,53.00 51.95,54.75 51.60,57.20"/>
    </edge>
    <edge id=":j_5" function="internal">
        <lane id=":j_5_0" index="0" speed="13.89" length="14.40" shape="57.20,51.60 42.80,51.60"/>
    </edge>
    <edge id=":j_6" function="internal">
        <lane id=":j_6_0" index="0" speed="8.00" length="4.07" shape="57.20,51.60 53.35,51.05 53.20,50.96"/>
    </edge>
    <edge id=":j_7" function="internal">
        <lane id=":j_7_0" index="0" speed="3.65" length="1.44" shape="57.20,51.60 56.00,50.80"/>
    </edge>
    <edge id=":j_18" function="internal">
        <lane id=":j_18_0" index="0" speed="8.00" length="10.13" shape="53.20,50.96 50.60,49.40 48.95,46.65 48.40,42.80"/>
    </edge>
    <edge id=":j_19" function="internal">
        <lane id=":j_19_0" index="0" speed="3.65" length="3.23" shape="56.00,50.80 55.60,50.00 56.00,49.20 57.20,48.40"/>
    </edge>
    <edge id=":j_8" function="internal">
        <lane id=":j_8_0" index="0" speed="6.51" length="9.03" shape="51.60,42.80 51.95,45.25 53.00,47.00 54.75,48.05 57.20,48.40"/>
    </edge>
    <edge id=":j_9" function="internal">
        <lane id=":j_9_0" index="0" speed="13.89" length="14.40" shape="51.60,42.80 51.60,57.20"/>
    </edge>
    <edge id=":j_10" function="internal">
        <lane id=":j_10_0" index="0" speed="8.00" length="4.07" shape="51.60,42.80 51.05,46.65 50.96,46.80"/>
    </edge>
    <edge id=":j_11" function="internal">
        <lane id=":j_11_0" index="0" speed="3.65" length="1.44" shape="51.60,42.80 50.80,44.00"/>
    </edge>
    <edge id=":j_20" function="internal">
        <lane id=":j_20_0" index="0" speed="8.00" length="10.13" shape="50.96,46.80 49.40,49.40 46.65,51.05 42.80,51.60"/>
    </edge>
    <edge id=":j_21" function="internal">
        <lane id=":j_21_0" index="0" speed="3.65" length="3.23" shape="50.80,44.00 50.00,44.40 49.20,44.00 48.40,42.80"/>
    </edge>
    <edge id=":j_12" function="internal">
        <lane id=":j_12_0" index="0" speed="6.51" length="9.03" shape="42.80,48.40 45.25,48.05 47.00,47.00 48.05,45.25 48.40,42.80"/>
    </edge>
    <edge id=":j_13" function="internal">
        <lane id=":j_13_0" index="0" speed="13.89" length="14.40" shape="42.80,48.40 57.20,48.40"/>
    </edge>
    <edge id=":j_14" function="internal">
        <lane id=":j_14_0" index="0" speed="8.00" length="4.07" shape="42.80,48.40 46.65,48.95 46.80,49.04"/>
    </edge>
    <edge id=":j_15" function="internal">
        <lane id=":j_15_0" index="0" speed="3.65" length="1.44" shape="42.80,48.40 44.00,49.20"/>
    </edge>
    <edge id=":j_22" function="internal">
        <lane id=":j_22_0" index="0" speed="8.00" length="10.13" shape="46.80,49.04 49.40,50.60 51.05,53.35 51.60,57.20"/>
    </edge>
    <edge id=":j_23" function="internal">
        <lane id=":j_23_0" index="0" speed="3.65" length="3.23" shape="44.00,49.20 44.40,50.00 44.00,50.80 42.80,51.60"/>
    </edge>
    <edge id=":k_0" function="internal">
        <lane id=":k_0_0" index="0" speed="6.51" length="9.03" shape="98.40,57.20 98.05,54.75 97.00,53.00 95.25,51.95 92.80,51.60"/>
    </edge>
    <edge id=":k_1" function="internal">
        <lane id=":k_1_0" index="0" speed="13.89" length="14.40" shape="98.40,57.20 98.40,42.80"/>
    </edge>
    <edge id=":k_2" function="internal">
        <lane id=":k_2_0" index="0" speed="8.00" length="4.07" shape="98.40,57.20 98.95,53.35 99.04,53.20"/>
    </edge>
    <edge id=":k_3" function="internal">
        <lane id=":k_3_0" index="0" speed="3.65" length="1.44" shape="98.40,57.20 99.20,56.00"/>
    </edge>
    <edge id=":k_16" function="internal">
        <lane id=":k_16_0" index="0" speed="8.00" length="10.13" shape="99.04,53.20 100.60,50.60 103.35,48.95 107.20,48.40"/>
    </edge>
    <edge id=":k_17" function="internal">
        <lane id=":k_17_0" index="0" speed="3.65" length="3.23" shape="99.20,56.00 100.00,55.60 100.80,56.00 101.60,57.20"/>
    </edge>
    <edge id=":k_4" function="internal">
        <lane id=":k_4_0" index="0" speed="6.51" length="9.03" shape="107.20,51.60 104.75,51.95 103.00,53.00 101.95,54.75 101.60,57.20"/>
    </edge>
    <edge id=":k_5" function="internal">
        <lane id=":k_5_0" index="0" speed="13.89" length="14.40" shape="107.20,51.60 92.80,51.60"/>
    </edge>
    <edge id=":k_6" function="internal">
        <lane id=":k_6_0" index="0" speed="8.00" length="4.07" shape="107.20,51.60 103.35,51.05 103.20,50.96"/>
    </edge>
    <edge id=":k_7" function="internal">
        <lane id=":k_7_0" index="0" speed="3.65" length="1.44" shape="107.20,51.60 106.00,50.80"/>
    </edge>
    <edge id=":k_18" function="internal">
        <lane id=":k_18_0" index="0" speed="8.00" length="10.13" shape="103.20,50.96 100.60,49.40 98.95,46.65 98.40,42.80"/>
    </edge>
    <edge id=":k_19" function="internal">
        <lane id=":k_19_0" index="0" speed="3.65" length="3.23" shape="106.00,50.80 105.60,50.00 106.00,49.20 107.20,48.40"/>
    </edge>
    <edge id=":k_8" function="internal">
        <lane id=":k_8_0" index="0" speed="6.51" length="9.03" shape="101.60,42.80 101.95,45.25 103.00,47.00 104.75,48.05 107.20,48.40"/>
    </edge>
    <edge id=":k_9" function="internal">
        <lane id=":k_9_0" index="0" speed="13.89" length="14.40" shape="101.60,42.80 101.60,57.20"/>
    </edge>
    <edge id=":k_10" function="internal">
        <lane id=":k_10_0" index="0" speed="8.00" length="4.07" shape="101.60,42.80 101.05,46.65 100.96,46.80"/>
    </edge>
    <edge id=":k_11" function="internal">
        <lane id=":k_11_0" index="0" speed="3.65" length="1.44" shape="101.60,42.80 100.80,44.00"/>
    </edge>
    <edge id=":k_20" function="internal">
        <lane id=":k_20_0" index="0" speed="8.00" length="10.13" shape="100.96,46.80 99.40,49.40 96.65,51.05 92.80,51.60"/>
    </edge>
    <edge id=":k_21" function="internal">
        <lane id=":k_21_0" index="0" speed="3.65" length="3.23" shape="100.80,44.00 100.00,44.40 99.20,44.00 98.40,42.80"/>
    </edge>
    <edge id=":k_12" function="internal">
        <lane id=":k_12_0" index="0" speed="6.51" length="9.03" shape="92.80,48.40 95.25,48.05 97.00,47.00 98.05,45.25 98.40,42.80"/>
    </edge>
    <edge id=":k_13" function="internal">
        <lane id=":k_13_0" index="0" speed="13.89" length="14.40" shape="92.80,48.40 107.20,48.40"/>
    </edge>
    <edge id=":k_14" function="internal">
        <lane id=":k_14_0" index="0" speed="8.00" length="4.07" shape="92.80,48.40 96.65,48.95 96.80,49.04"/>
    </edge>
    <edge id=":k_15" function="internal">
        <lane id=":k_15_0" index="0" speed="3.65" length="1.44" shape="92.80,48.40 94.00,49.20"/>
    </edge>
    <edge id=":k_22" function="internal">
        <lane id=":k_22_0" index="0" speed="8.00" length="10.13" shape="96.80,49.04 99.40,50.60 101.05,53.35 101.60,57.20"/>
    </edge>
    <edge id=":k_23" function="internal">
        <lane id=":k_23_0" index="0" speed="3.65" length="3.23" shape="94.00,49.20 94.40,50.00 94.00,50.80 92.80,51.60"/>
    </edge>
    <edge id=":l_0" function="internal">
        <lane id=":l_0_0" index="0" speed="6.51" length="9.03" shape="148.40,57.20 148.05,54.75 147.00,53.00 145.25,51.95 142.80,51.60"/>
    </edge>
    <edge id=":l_1" function="internal">
        <lane id=":l_1_0" index="0" speed="13.89" length="14.40" shape="148.40,57.20 148.40,42.80"/>
    </edge>
    <edge id=":l_2" function="internal">
        <lane id=":l_2_0" index="0" speed="3.65" length="1.44" shape="148.40,57.20 149.20,56.00"/>
    </edge>
    <edge id=":l_9" function="internal">
        <lane id=":l_9_0" index="0" speed="3.65" length="3.23" shape="149.20,56.00 150.00,55.60 150.80,56.00 151.60,57.20"/>
    </edge>
    <edge id=":l_3" function="internal">
        <lane id=":l_3_0" index="0" speed="13.89" length="14.40" shape="151.60,42.80 151.60,57.20"/>
    </edge>
    <edge id=":l_4" function="internal">
        <lane id=":l_4_0" index="0" speed="8.00" length="4.07" shape="151.60,42.80 151.05,46.65 150.96,46.80"/>
    </edge>
    <edge id=":l_5" function="internal">