<routes>
<vType id="type1" accel="2.6" decel="4.5" sigma="0.5" length="5" maxSpeed="13.89"/>
