<routes>
<vType id="type1" accel="2.6" decel="4.5" sigma="0.5" length="5" maxSpeed="13.89"/>
    <route id="route0" edges="nm mi ie"/>
    <route id="route1" edges="lp po"/>
    <route id="route2" edges="kj jn no op"/>
    <route id="route3" edges="ab bf fj"/>
    <route id="route4" edges="ei im mn no"/>
    <route id="route5" edges="ok kj jn"/>
    <route id="route6" edges="ba ae ei ij"/>
    <route id="route7" edges="ij jn"/>
    <route id="route8" edges="jf fg gc"/>
    <route id="route9" edges="dc cb bf"/>
    <route id="route10" edges="ae ei im"/>
    <route id="route11" edges="hd dc cb ba"/>
    <route id="route12" edges="gf fb"/>
    <route id="route13" edges="mi ij jk"/>
    <route id="route14" edges="dc cg gk"/>
    <route id="route15" edges="hl lk"/>
    <route id="route16" edges="ae ei im mn"/>
    <route id="route17" edges="no ok kj jf"/>
    <route id="route18" edges="cb ba ae"/>
    <route id="route19" edges="gc cb bf fe"/>
    <route id="route20" edges="ei ij jn"/>
    <route id="route21" edges="ok kj"/>
    <route id="route22" edges="gc cb ba"/>
    <route id="route23" edges="dh hl"/>
    <route id="route24" edges="fb bc cg gk"/>
    <route id="route25" edges="kg gc"/>
    <route id="route26" edges="fj jn no"/>
    <route id="route27" edges="jk kl"/>
    <route id="route28" edges="ko on nm"/>
    <route id="route29" edges="nm mi ij jf"/>
    <route id="route30" edges="fe ea"/>
    <route id="route31" edges="ef fg gh hd"/>
    <route id="route32" edges="lp po"/>
    <route id="route33" edges="on nm mi"/>
    <route id="route34" edges="cd dh hl"/>
    <route id="route35" edges="no op pl"/>
    <route id="route36" edges="lp po"/>
    <route id="route37" edges="po ok"/>
    <route id="route38" edges="mi ij"/>
    <route id="route39" edges="mi ij jn nm"/>
    <route id="route40" edges="ea ab bc cg"/>
    <route id="route41" edges="ef fb"/>
    <route id="route42" edges="ei im mn"/>
    <route id="route43" edges="mn no ok"/>
    <route id="route44" edges="no ok"/>
    <route id="route45" edges="mi ie ea ab"/>
    <route id="route46" edges="no op"/>
    <route id="route47" edges="kg gh"/>
    <route id="route48" edges="kl lh hd dc"/>
    <route id="route49" edges="cg gh"/>
    <route id="route50" edges="pl lh hg gc"/>
    <route id="route51" edges="cg gk"/>
    <route id="route52" edges="dc cg gk kj"/>
    <route id="route53" edges="pl lh hd dc"/>
    <route id="route54" edges="jn nm"/>
    <route id="route55" edges="cb ba"/>
    <route id="route56" edges="mn no ok"/>
    <route id="route57" edges="pl lk"/>
    <route id="route58" edges="ji ie"/>
    <route id="route59" edges="nm mi ij"/>
    <route id="route60" edges="dh hl"/>
    <route id="route61" edges="bc cd dh"/>
    <route id="route62" edges="fe ea"/>
    <route id="route63" edges="bc cd dh"/>
    <route id="route64" edges="hg gc cd dh"/>
    <route id="route65" edges="gh hd"/>
    <route id="route66" edges="cg gk kj jf"/>
    <route id="route67" edges="lh hg gf fj"/>
    <route id="route68" edges="dc cb bf fj"/>
    <route id="route69" edges="dh hl lp"/>
    <route id="route70" edges="op pl lh"/>
    <route id="route71" edges="ab bc cg"/>
    <route id="route72" edges="ba ae ei"/>
    <route id="route73" edges="ok kg"/>
    <route id="route74" edges="pl lh hg"/>
    <route id="route75" edges="mn no op"/>
    <route id="route76" edges="fb bc cg gk"/>
    <route id="route77" edges="gk kl"/>
    <route id="route78" edges="gh hl"/>
    <route id="route79" edges="hd dc cb"/>
    <route id="route80" edges="pl lh"/>
    <route id="route81" edges="ij jk ko"/>
    <route id="route82" edges="hg gf fe ei"/>
    <route id="route83" edges="cg gk ko"/>
    <route id="route84" edges="ef fb bc"/>
    <route id="route85" edges="mi ij jn nm"/>
    <route id="route86" edges="ie ef fg gk"/>
    <route id="route87" edges="lp po"/>
    <route id="route88" edges="dh hg gc"/>
    <route id="route89" edges="ie ea"/>
    <route id="route90" edges="ko op"/>
    <route id="route91" edges="fj jn nm"/>
    <route id="route92" edges="ij jk kl"/>
    <route id="route93" edges="ko op pl"/>
    <route id="route94" edges="fe ei im"/>
    <route id="route95" edges="nj ji"/>
    <route id="route96" edges="nj ji"/>
    <route id="route97" edges="po ok kl"/>
    <route id="route98" edges="fj ji ie"/>
    <route id="route99" edges="kg gc"/>
 <vehicle id="veh764" type="type1" route="route89" depart="0"/>
 <vehicle id="veh165" type="type1" route="route54" depart="1"/>
 <vehicle id="veh308" type="type1" route="route79" depart="2"/>
 <vehicle id="veh77" type="type1" route="route80" depart="3"/>
 <vehicle id="veh791" type="type1" route="route99" depart="3"/>
 <vehicle id="veh879" type="type1" route="route87" depart="4"/>
 <vehicle id="veh278" type="type1" route="route78" depart="5"/>
 <vehicle id="veh447" type="type1" route="route54" depart="5"/>
 <vehicle id="veh153" type="type1" route="route80" depart="6"/>
 <vehicle id="veh279" type="type1" route="route33" depart="6"/>
 <vehicle id="veh215" type="type1" route="route91" depart="7"/>
 <vehicle id="veh507" type="type1" route="route4" depart="7"/>
 <vehicle id="veh93" type="type1" route="route82" depart="8"/>
 <vehicle id="veh572" type="type1" route="route9" depart="8"/>
 <vehicle id="veh210" type="type1" route="route73" depart="9"/>
 <vehicle id="veh992" type="type1" route="route1" depart="9"/>
 <vehicle id="veh214" type="type1" route="route34" depart="10"/>
 <vehicle id="veh628" type="type1" route="route92" depart="11"/>
 <vehicle id="veh857" type="type1" route="route89" depart="14"/>
 <vehicle id="veh67" type="type1" route="route59" depart="15"/>
 <vehicle id="veh583" type="type1" route="route83" depart="15"/>
 <vehicle id="veh688" type="type1" route="route94" depart="15"/>
 <vehicle id="veh532" type="type1" route="route80" depart="17"/>
 <vehicle id="veh575" type="type1" route="route33" depart="17"/>
 <vehicle id="veh365" type="type1" route="route42" depart="20"/>
 <vehicle id="veh874" type="type1" route="route47" depart="20"/>
 <vehicle id="veh390" type="type1" route="route57" depart="22"/>
 <vehicle id="veh923" type="type1" route="route6" depart="22"/>
 <vehicle id="veh121" type="type1" route="route77" depart="23"/>
 <vehicle id="veh291" type="type1" route="route12" depart="23"/>
 <vehicle id="veh465" type="type1" route="route12" depart="23"/>
 <vehicle id="veh151" type="type1" route="route31" depart="24"/>
 <vehicle id="veh310" type="type1" route="route5" depart="24"/>
 <vehicle id="veh798" type="type1" route="route65" depart="24"/>
 <vehicle id="veh770" type="type1" route="route45" depart="25"/>
 <vehicle id="veh29" type="type1" route="route61" depart="26"/>
 <vehicle id="veh508" type="type1" route="route99" depart="26"/>
 <vehicle id="veh175" type="type1" route="route67" depart="27"/>
 <vehicle id="veh181" type="type1" route="route32" depart="27"/>
 <vehicle id="veh562" type="type1" route="route15" depart="28"/>
 <vehicle id="veh840" type="type1" route="route97" depart="30"/>
 <vehicle id="veh997" type="type1" route="route34" depart="32"/>
 <vehicle id="veh371" type="type1" route="route58" depart="33"/>
 <vehicle id="veh273" type="type1" route="route45" depart="35"/>
 <vehicle id="veh469" type="type1" route="route76" depart="35"/>
 <vehicle id="veh477" type="type1" route="route82" depart="36"/>
 <vehicle id="veh491" type="type1" route="route44" depart="37"/>
 <vehicle id="veh828" type="type1" route="route98" depart="37"/>
 <vehicle id="veh513" type="type1" route="route76" depart="38"/>
 <vehicle id="veh786" type="type1" route="route18" depart="38"/>
 <vehicle id="veh699" type="type1" route="route26" depart="39"/>
 <vehicle id="veh21" type="type1" route="route79" depart="43"/>
 <vehicle id="veh692" type="type1" route="route11" depart="43"/>
 <vehicle id="veh148" type="type1" route="route99" depart="44"/>
 <vehicle id="veh276" type="type1" route="route27" depart="44"/>
 <vehicle id="veh169" type="type1" route="route72" depart="45"/>
 <vehicle id="veh439" type="type1" route="route20" depart="45"/>
 <vehicle id="veh629" type="type1" route="route99" depart="45"/>
 <vehicle id="veh120" type="type1" route="route14" depart="48"/>
 <vehicle id="veh403" type="type1" route="route57" depart="49"/>
 <vehicle id="veh908" type="type1" route="route75" depart="49"/>
 <vehicle id="veh168" type="type1" route="route34" depart="50"/>
 <vehicle id="veh113" type="type1" route="route96" depart="54"/>
 <vehicle id="veh816" type="type1" route="route30" depart="54"/>
 <vehicle id="veh9" type="type1" route="route79" depart="55"/>
 <vehicle id="veh98" type="type1" route="route91" depart="55"/>
 <vehicle id="veh598" type="type1" route="route19" depart="55"/>
 <vehicle id="veh648" type="type1" route="route1" depart="55"/>
 <vehicle id="veh281" type="type1" route="route59" depart="56"/>
 <vehicle id="veh171" type="type1" route="route77" depart="57"/>
 <vehicle id="veh856" type="type1" route="route40" depart="57"/>
 <vehicle id="veh639" type="type1" route="route29" depart="58"/>
 <vehicle id="veh910" type="type1" route="route28" depart="58"/>
 <vehicle id="veh297" type="type1" route="route32" depart="59"/>
 <vehicle id="veh815" type="type1" route="route66" depart="61"/>
 <vehicle id="veh37" type="type1" route="route53" depart="62"/>
 <vehicle id="veh89" type="type1" route="route92" depart="63"/>
 <vehicle id="veh432" type="type1" route="route52" depart="63"/>
 <vehicle id="veh902" type="type1" route="route21" depart="64"/>
 <vehicle id="veh706" type="type1" route="route36" depart="65"/>
 <vehicle id="veh488" type="type1" route="route36" depart="66"/>
 <vehicle id="veh788" type="type1" route="route56" depart="66"/>
 <vehicle id="veh451" type="type1" route="route40" depart="67"/>
 <vehicle id="veh872" type="type1" route="route77" depart="69"/>
 <vehicle id="veh835" type="type1" route="route78" depart="70"/>
 <vehicle id="veh989" type="type1" route="route21" depart="70"/>
 <vehicle id="veh859" type="type1" route="route9" depart="71"/>
 <vehicle id="veh64" type="type1" route="route47" depart="74"/>
 <vehicle id="veh719" type="type1" route="route62" depart="74"/>
 <vehicle id="veh775" type="type1" route="route9" depart="74"/>
 <vehicle id="veh695" type="type1" route="route69" depart="75"/>
 <vehicle id="veh352" type="type1" route="route24" depart="76"/>
 <vehicle id="veh448" type="type1" route="route67" depart="76"/>
 <vehicle id="veh119" type="type1" route="route70" depart="77"/>
 <vehicle id="veh102" type="type1" route="route68" depart="78"/>
 <vehicle id="veh579" type="type1" route="route19" depart="78"/>
 <vehicle id="veh758" type="type1" route="route54" depart="78"/>
 <vehicle id="veh924" type="type1" route="route27" depart="78"/>
 <vehicle id="veh485" type="type1" route="route68" depart="79"/>
 <vehicle id="veh255" type="type1" route="route77" depart="80"/>
 <vehicle id="veh188" type="type1" route="route64" depart="81"/>
 <vehicle id="veh295" type="type1" route="route78" depart="82"/>
 <vehicle id="veh713" type="type1" route="route70" depart="82"/>
 <vehicle id="veh925" type="type1" route="route24" depart="82"/>
 <vehicle id="veh46" type="type1" route="route24" depart="83"/>
 <vehicle id="veh613" type="type1" route="route61" depart="83"/>
 <vehicle id="veh468" type="type1" route="route19" depart="87"/>
 <vehicle id="veh47" type="type1" route="route26" depart="89"/>
 <vehicle id="veh755" type="type1" route="route68" depart="90"/>
 <vehicle id="veh110" type="type1" route="route64" depart="94"/>
 <vehicle id="veh701" type="type1" route="route76" depart="94"/>
 <vehicle id="veh934" type="type1" route="route40" depart="94"/>
 <vehicle id="veh437" type="type1" route="route71" depart="95"/>
 <vehicle id="veh421" type="type1" route="route74" depart="100"/>
 <vehicle id="veh937" type="type1" route="route55" depart="102"/>
 <vehicle id="veh996" type="type1" route="route31" depart="102"/>
 <vehicle id="veh423" type="type1" route="route99" depart="105"/>
 <vehicle id="veh542" type="type1" route="route32" depart="105"/>
 <vehicle id="veh711" type="type1" route="route87" depart="106"/>
 <vehicle id="veh395" type="type1" route="route23" depart="107"/>
 <vehicle id="veh666" type="type1" route="route72" depart="109"/>
 <vehicle id="veh813" type="type1" route="route38" depart="109"/>
 <vehicle id="veh150" type="type1" route="route17" depart="110"/>
 <vehicle id="veh269" type="type1" route="route91" depart="111"/>
 <vehicle id="veh973" type="type1" route="route0" depart="113"/>
 <vehicle id="veh5" type="type1" route="route42" depart="114"/>
 <vehicle id="veh336" type="type1" route="route23" depart="114"/>
 <vehicle id="veh406" type="type1" route="route35" depart="116"/>
 <vehicle id="veh552" type="type1" route="route73" depart="116"/>
 <vehicle id="veh870" type="type1" route="route54" depart="116"/>
 <vehicle id="veh977" type="type1" route="route26" depart="122"/>
 <vehicle id="veh721" type="type1" route="route31" depart="123"/>
 <vehicle id="veh187" type="type1" route="route0" depart="125"/>
 <vehicle id="veh931" type="type1" route="route7" depart="126"/>
 <vehicle id="veh818" type="type1" route="route92" depart="128"/>
 <vehicle id="veh720" type="type1" route="route79" depart="129"/>
 <vehicle id="veh430" type="type1" route="route53" depart="130"/>
 <vehicle id="veh505" type="type1" route="route49" depart="131"/>
 <vehicle id="veh257" type="type1" route="route54" depart="137"/>
 <vehicle id="veh474" type="type1" route="route73" depart="138"/>
 <vehicle id="veh238" type="type1" route="route2" depart="139"/>
 <vehicle id="veh325" type="type1" route="route58" depart="139"/>
 <vehicle id="veh861" type="type1" route="route85" depart="139"/>
 <vehicle id="veh383" type="type1" route="route97" depart="140"/>
 <vehicle id="veh498" type="type1" route="route95" depart="140"/>
 <vehicle id="veh418" type="type1" route="route82" depart="141"/>
 <vehicle id="veh878" type="type1" route="route63" depart="141"/>
 <vehicle id="veh826" type="type1" route="route38" depart="142"/>
 <vehicle id="veh381" type="type1" route="route37" depart="144"/>
 <vehicle id="veh867" type="type1" route="route83" depart="144"/>
 <vehicle id="veh734" type="type1" route="route52" depart="147"/>
 <vehicle id="veh78" type="type1" route="route98" depart="150"/>
 <vehicle id="veh502" type="type1" route="route60" depart="151"/>
 <vehicle id="veh684" type="type1" route="route19" depart="152"/>
 <vehicle id="veh182" type="type1" route="route91" depart="153"/>
 <vehicle id="veh858" type="type1" route="route90" depart="153"/>
 <vehicle id="veh999" type="type1" route="route18" depart="154"/>
 <vehicle id="veh493" type="type1" route="route33" depart="156"/>
 <vehicle id="veh948" type="type1" route="route80" depart="156"/>
 <vehicle id="veh34" type="type1" route="route1" depart="160"/>
 <vehicle id="veh431" type="type1" route="route26" depart="160"/>
 <vehicle id="veh726" type="type1" route="route62" depart="160"/>
 <vehicle id="veh739" type="type1" route="route41" depart="161"/>
 <vehicle id="veh480" type="type1" route="route0" depart="162"/>
 <vehicle id="veh952" type="type1" route="route90" depart="162"/>
 <vehicle id="veh143" type="type1" route="route90" depart="163"/>
 <vehicle id="veh504" type="type1" route="route46" depart="163"/>
 <vehicle id="veh601" type="type1" route="route25" depart="164"/>
 <vehicle id="veh710" type="type1" route="route5" depart="165"/>
 <vehicle id="veh561" type="type1" route="route79" depart="166"/>
 <vehicle id="veh108" type="type1" route="route60" depart="168"/>
 <vehicle id="veh339" type="type1" route="route71" depart="168"/>
 <vehicle id="veh396" type="type1" route="route81" depart="168"/>
 <vehicle id="veh953" type="type1" route="route7" depart="175"/>
 <vehicle id="veh440" type="type1" route="route9" depart="177"/>
 <vehicle id="veh231" type="type1" route="route26" depart="179"/>
 <vehicle id="veh983" type="type1" route="route38" depart="181"/>
 <vehicle id="veh117" type="type1" route="route36" depart="182"/>
 <vehicle id="veh405" type="type1" route="route60" depart="184"/>
 <vehicle id="veh38" type="type1" route="route77" depart="186"/>
 <vehicle id="veh88" type="type1" route="route39" depart="187"/>
 <vehicle id="veh435" type="type1" route="route42" depart="187"/>
 <vehicle id="veh803" type="type1" route="route74" depart="188"/>
 <vehicle id="veh884" type="type1" route="route21" depart="189"/>
 <vehicle id="veh539" type="type1" route="route86" depart="193"/>
 <vehicle id="veh615" type="type1" route="route57" depart="193"/>
 <vehicle id="veh364" type="type1" route="route0" depart="195"/>
 <vehicle id="veh606" type="type1" route="route36" depart="197"/>
 <vehicle id="veh389" type="type1" route="route16" depart="198"/>
 <vehicle id="veh28" type="type1" route="route75" depart="201"/>
 <vehicle id="veh104" type="type1" route="route79" depart="202"/>
 <vehicle id="veh55" type="type1" route="route5" depart="204"/>
 <vehicle id="veh158" type="type1" route="route35" depart="205"/>
 <vehicle id="veh715" type="type1" route="route51" depart="205"/>
 <vehicle id="veh146" type="type1" route="route41" depart="206"/>
 <vehicle id="veh700" type="type1" route="route33" depart="206"/>
 <vehicle id="veh222" type="type1" route="route44" depart="207"/>
 <vehicle id="veh459" type="type1" route="route59" depart="207"/>
 <vehicle id="veh790" type="type1" route="route59" depart="207"/>
 <vehicle id="veh191" type="type1" route="route99" depart="209"/>
 <vehicle id="veh665" type="type1" route="route24" depart="209"/>
 <vehicle id="veh714" type="type1" route="route79" depart="209"/>
 <vehicle id="veh890" type="type1" route="route60" depart="209"/>
 <vehicle id="veh1" type="type1" route="route72" depart="211"/>
 <vehicle id="veh204" type="type1" route="route90" depart="211"/>
 <vehicle id="veh805" type="type1" route="route41" depart="211"/>
 <vehicle id="veh801" type="type1" route="route75" depart="212"/>
 <vehicle id="veh340" type="type1" route="route50" depart="213"/>
 <vehicle id="veh832" type="type1" route="route24" depart="215"/>
 <vehicle id="veh247" type="type1" route="route19" depart="216"/>
 <vehicle id="veh865" type="type1" route="route65" depart="216"/>
 <vehicle id="veh481" type="type1" route="route28" depart="217"/>
 <vehicle id="veh280" type="type1" route="route17" depart="219"/>
 <vehicle id="veh581" type="type1" route="route52" depart="219"/>
 <vehicle id="veh2" type="type1" route="route88" depart="220"/>
 <vehicle id="veh54" type="type1" route="route46" depart="220"/>
 <vehicle id="veh367" type="type1" route="route86" depart="220"/>
 <vehicle id="veh236" type="type1" route="route22" depart="221"/>
 <vehicle id="veh316" type="type1" route="route41" depart="221"/>
 <vehicle id="veh436" type="type1" route="route84" depart="221"/>
 <vehicle id="veh92" type="type1" route="route18" depart="223"/>
 <vehicle id="veh668" type="type1" route="route24" depart="223"/>
 <vehicle id="veh497" type="type1" route="route28" depart="224"/>
 <vehicle id="veh783" type="type1" route="route9" depart="225"/>
 <vehicle id="veh170" type="type1" route="route52" depart="226"/>
 <vehicle id="veh610" type="type1" route="route64" depart="226"/>
 <vehicle id="veh503" type="type1" route="route29" depart="228"/>
 <vehicle id="veh766" type="type1" route="route28" depart="229"/>
 <vehicle id="veh333" type="type1" route="route45" depart="231"/>
 <vehicle id="veh823" type="type1" route="route80" depart="232"/>
 <vehicle id="veh65" type="type1" route="route53" depart="234"/>
 <vehicle id="veh183" type="type1" route="route52" depart="234"/>
 <vehicle id="veh808" type="type1" route="route87" depart="234"/>
 <vehicle id="veh274" type="type1" route="route87" depart="235"/>
 <vehicle id="veh549" type="type1" route="route20" depart="235"/>
 <vehicle id="veh154" type="type1" route="route72" depart="238"/>
 <vehicle id="veh993" type="type1" route="route34" depart="239"/>
 <vehicle id="veh455" type="type1" route="route46" depart="241"/>
 <vehicle id="veh577" type="type1" route="route18" depart="241"/>
 <vehicle id="veh687" type="type1" route="route96" depart="243"/>
 <vehicle id="veh781" type="type1" route="route66" depart="243"/>
 <vehicle id="veh950" type="type1" route="route50" depart="244"/>
 <vehicle id="veh482" type="type1" route="route77" depart="245"/>
 <vehicle id="veh197" type="type1" route="route20" depart="248"/>
 <vehicle id="veh378" type="type1" route="route95" depart="248"/>
 <vehicle id="veh444" type="type1" route="route50" depart="248"/>
 <vehicle id="veh850" type="type1" route="route42" depart="248"/>
 <vehicle id="veh232" type="type1" route="route78" depart="255"/>
 <vehicle id="veh810" type="type1" route="route40" depart="256"/>
 <vehicle id="veh321" type="type1" route="route74" depart="257"/>
 <vehicle id="veh694" type="type1" route="route72" depart="257"/>
 <vehicle id="veh260" type="type1" route="route95" depart="260"/>
 <vehicle id="veh446" type="type1" route="route65" depart="261"/>
 <vehicle id="veh751" type="type1" route="route92" depart="262"/>
 <vehicle id="veh727" type="type1" route="route86" depart="269"/>
 <vehicle id="veh558" type="type1" route="route66" depart="270"/>
 <vehicle id="veh509" type="type1" route="route63" depart="273"/>
 <vehicle id="veh889" type="type1" route="route57" depart="273"/>
 <vehicle id="veh52" type="type1" route="route28" depart="275"/>
 <vehicle id="veh394" type="type1" route="route67" depart="276"/>
 <vehicle id="veh476" type="type1" route="route58" depart="276"/>
 <vehicle id="veh533" type="type1" route="route62" depart="276"/>
 <vehicle id="veh817" type="type1" route="route56" depart="276"/>
 <vehicle id="veh963" type="type1" route="route51" depart="277"/>
 <vehicle id="veh12" type="type1" route="route45" depart="278"/>
 <vehicle id="veh30" type="type1" route="route25" depart="278"/>
 <vehicle id="veh697" type="type1" route="route16" depart="284"/>
 <vehicle id="veh971" type="type1" route="route36" depart="284"/>
 <vehicle id="veh338" type="type1" route="route54" depart="285"/>
 <vehicle id="veh441" type="type1" route="route70" depart="285"/>
 <vehicle id="veh91" type="type1" route="route51" depart="286"/>
 <vehicle id="veh399" type="type1" route="route2" depart="293"/>
 <vehicle id="veh631" type="type1" route="route64" depart="294"/>
 <vehicle id="veh347" type="type1" route="route63" depart="296"/>
 <vehicle id="veh560" type="type1" route="route22" depart="296"/>
 <vehicle id="veh112" type="type1" route="route58" depart="297"/>
 <vehicle id="veh305" type="type1" route="route69" depart="298"/>
 <vehicle id="veh927" type="type1" route="route29" depart="299"/>
 <vehicle id="veh137" type="type1" route="route41" depart="300"/>
 <vehicle id="veh240" type="type1" route="route78" depart="300"/>
 <vehicle id="veh757" type="type1" route="route48" depart="305"/>
 <vehicle id="veh328" type="type1" route="route76" depart="306"/>
 <vehicle id="veh891" type="type1" route="route91" depart="307"/>
 <vehicle id="veh11" type="type1" route="route45" depart="309"/>
 <vehicle id="veh883" type="type1" route="route89" depart="309"/>
 <vehicle id="veh633" type="type1" route="route65" depart="312"/>
 <vehicle id="veh752" type="type1" route="route53" depart="314"/>
 <vehicle id="veh382" type="type1" route="route1" depart="316"/>
 <vehicle id="veh554" type="type1" route="route60" depart="318"/>
 <vehicle id="veh662" type="type1" route="route1" depart="318"/>
 <vehicle id="veh13" type="type1" route="route26" depart="320"/>
 <vehicle id="veh467" type="type1" route="route63" depart="321"/>
 <vehicle id="veh75" type="type1" route="route20" depart="325"/>
 <vehicle id="veh332" type="type1" route="route10" depart="327"/>
 <vehicle id="veh892" type="type1" route="route12" depart="327"/>
 <vehicle id="veh708" type="type1" route="route81" depart="328"/>
 <vehicle id="veh404" type="type1" route="route98" depart="329"/>
 <vehicle id="veh317" type="type1" route="route13" depart="330"/>
 <vehicle id="veh73" type="type1" route="route18" depart="331"/>
 <vehicle id="veh846" type="type1" route="route8" depart="331"/>
 <vehicle id="veh917" type="type1" route="route12" depart="331"/>
 <vehicle id="veh988" type="type1" route="route36" depart="331"/>
 <vehicle id="veh342" type="type1" route="route86" depart="332"/>
 <vehicle id="veh177" type="type1" route="route40" depart="334"/>
 <vehicle id="veh743" type="type1" route="route62" depart="334"/>
 <vehicle id="veh958" type="type1" route="route98" depart="336"/>
 <vehicle id="veh673" type="type1" route="route43" depart="337"/>
 <vehicle id="veh107" type="type1" route="route75" depart="338"/>
 <vehicle id="veh413" type="type1" route="route69" depart="338"/>
 <vehicle id="veh772" type="type1" route="route79" depart="338"/>
 <vehicle id="veh862" type="type1" route="route93" depart="338"/>
 <vehicle id="veh313" type="type1" route="route71" depart="339"/>
 <vehicle id="veh838" type="type1" route="route48" depart="339"/>
 <vehicle id="veh563" type="type1" route="route60" depart="340"/>
 <vehicle id="veh748" type="type1" route="route14" depart="340"/>
 <vehicle id="veh192" type="type1" route="route12" depart="341"/>
 <vehicle id="veh614" type="type1" route="route7" depart="345"/>
 <vehicle id="veh303" type="type1" route="route92" depart="346"/>
 <vehicle id="veh483" type="type1" route="route90" depart="347"/>
 <vehicle id="veh529" type="type1" route="route8" depart="348"/>
 <vehicle id="veh655" type="type1" route="route37" depart="353"/>
 <vehicle id="veh885" type="type1" route="route37" depart="353"/>
 <vehicle id="veh517" type="type1" route="route11" depart="354"/>
 <vehicle id="veh760" type="type1" route="route25" depart="354"/>
 <vehicle id="veh212" type="type1" route="route46" depart="355"/>
 <vehicle id="veh417" type="type1" route="route14" depart="356"/>
 <vehicle id="veh27" type="type1" route="route53" depart="357"/>
 <vehicle id="veh675" type="type1" route="route63" depart="357"/>
 <vehicle id="veh83" type="type1" route="route79" depart="358"/>
 <vehicle id="veh717" type="type1" route="route76" depart="358"/>
 <vehicle id="veh819" type="type1" route="route43" depart="359"/>
 <vehicle id="veh129" type="type1" route="route65" depart="360"/>
 <vehicle id="veh318" type="type1" route="route65" depart="361"/>
 <vehicle id="veh926" type="type1" route="route38" depart="363"/>
 <vehicle id="veh626" type="type1" route="route24" depart="365"/>
 <vehicle id="veh915" type="type1" route="route76" depart="365"/>
 <vehicle id="veh944" type="type1" route="route35" depart="365"/>
 <vehicle id="veh834" type="type1" route="route12" depart="366"/>
 <vehicle id="veh32" type="type1" route="route29" depart="367"/>
 <vehicle id="veh301" type="type1" route="route83" depart="367"/>
 <vehicle id="veh327" type="type1" route="route22" depart="370"/>
 <vehicle id="veh868" type="type1" route="route99" depart="372"/>
 <vehicle id="veh877" type="type1" route="route5" depart="374"/>
 <vehicle id="veh235" type="type1" route="route36" depart="377"/>
 <vehicle id="veh928" type="type1" route="route85" depart="377"/>
 <vehicle id="veh202" type="type1" route="route44" depart="379"/>
 <vehicle id="veh420" type="type1" route="route61" depart="379"/>
 <vehicle id="veh794" type="type1" route="route98" depart="379"/>
 <vehicle id="veh90" type="type1" route="route94" depart="380"/>
 <vehicle id="veh777" type="type1" route="route43" depart="382"/>
 <vehicle id="veh277" type="type1" route="route46" depart="383"/>
 <vehicle id="veh571" type="type1" route="route48" depart="383"/>
 <vehicle id="veh782" type="type1" route="route51" depart="383"/>
 <vehicle id="veh897" type="type1" route="route31" depart="383"/>
 <vehicle id="veh19" type="type1" route="route42" depart="384"/>
 <vehicle id="veh691" type="type1" route="route48" depart="384"/>
 <vehicle id="veh831" type="type1" route="route37" depart="386"/>
 <vehicle id="veh839" type="type1" route="route70" depart="387"/>
 <vehicle id="veh118" type="type1" route="route49" depart="391"/>
 <vehicle id="veh87" type="type1" route="route65" depart="393"/>
 <vehicle id="veh844" type="type1" route="route15" depart="393"/>
 <vehicle id="veh24" type="type1" route="route83" depart="394"/>
 <vehicle id="veh286" type="type1" route="route10" depart="394"/>
 <vehicle id="veh729" type="type1" route="route77" depart="394"/>
 <vehicle id="veh569" type="type1" route="route37" depart="395"/>
 <vehicle id="veh904" type="type1" route="route10" depart="395"/>
 <vehicle id="veh644" type="type1" route="route98" depart="396"/>
 <vehicle id="veh974" type="type1" route="route0" depart="396"/>
 <vehicle id="veh20" type="type1" route="route80" depart="397"/>
 <vehicle id="veh159" type="type1" route="route8" depart="397"/>
 <vehicle id="veh180" type="type1" route="route56" depart="397"/>
 <vehicle id="veh559" type="type1" route="route74" depart="398"/>
 <vehicle id="veh445" type="type1" route="route89" depart="399"/>
 <vehicle id="veh490" type="type1" route="route26" depart="400"/>
 <vehicle id="veh789" type="type1" route="route86" depart="403"/>
 <vehicle id="veh957" type="type1" route="route44" depart="404"/>
 <vehicle id="veh774" type="type1" route="route98" depart="407"/>
 <vehicle id="veh935" type="type1" route="route88" depart="407"/>
 <vehicle id="veh637" type="type1" route="route76" depart="408"/>
 <vehicle id="veh516" type="type1" route="route74" depart="409"/>
 <vehicle id="veh586" type="type1" route="route24" depart="409"/>
 <vehicle id="veh478" type="type1" route="route62" depart="410"/>
 <vehicle id="veh525" type="type1" route="route95" depart="410"/>
 <vehicle id="veh678" type="type1" route="route42" depart="410"/>
 <vehicle id="veh982" type="type1" route="route95" depart="410"/>
 <vehicle id="veh14" type="type1" route="route10" depart="411"/>
 <vehicle id="veh348" type="type1" route="route77" depart="411"/>
 <vehicle id="veh524" type="type1" route="route89" depart="413"/>
 <vehicle id="veh685" type="type1" route="route19" depart="414"/>
 <vehicle id="veh343" type="type1" route="route20" depart="415"/>
 <vehicle id="veh472" type="type1" route="route64" depart="417"/>