<?xml version="1.0" encoding="UTF-8"?>

<!-- generated on 2025-03-31 13:38:29.255065 by randomTrips.py v1_20_0+0002-343658e7c64
<configuration>
    <net-file value="sumo_network\one_inter2.net.xml"/>
    <output-trip-file value="sumo_network\randomTrips.trips.xml"/>
    <fringe-factor value="4"/>
    <seed value="1455"/>
    <validate value="True"/>
    <period value="3.0"/>
</configuration>
-->

<!-- generated on 2025-03-31 13:38:29 by Eclipse SUMO duarouter Version 1.20.0
<configuration xmlns:xsi="http://www.w3.org/2001/XMLSchema-instance" xsi:noNamespaceSchemaLocation="http://sumo.dlr.de/xsd/duarouterConfiguration.xsd">

    <input>
        <net-file value="sumo_network\one_inter2.net.xml"/>
        <route-files value="sumo_network\randomTrips.trips.xml"/>
    </input>

    <output>
        <output-file value="sumo_network\randomTrips.trips.xml.tmp"/>
        <alternatives-output value="NUL"/>
        <write-trips value="true"/>
    </output>

    <time>
        <begin value="0.0"/>
        <end value="3600.0"/>
    </time>

    <report>
        <no-warnings value="true"/>
        <ignore-errors value="true"/>
        <no-step-log value="true"/>
    </report>

</configuration>
-->

<routes xmlns:xsi="http://www.w3.org/2001/XMLSchema-instance" xsi:noNamespaceSchemaLocation="http://sumo.dlr.de/xsd/routes_file.xsd">
    <trip id="0" depart="0.00" from="fe" to="eb"/>
    <trip id="1" depart="3.00" from="he" to="ef"/>
    <trip id="2" depart="6.00" from="he" to="ef"/>
    <trip id="3" depart="9.00" from="be" to="ed"/>
    <trip id="4" depart="12.00" from="fe" to="eh"/>
    <trip id="5" depart="15.00" from="be" to="ed"/>
    <trip id="6" depart="18.00" from="de" to="eh"/>
    <trip id="7" depart="21.00" from="he" to="ed"/>
    <trip id="8" depart="24.00" from="be" to="eh"/>
    <trip id="9" depart="27.00" from="de" to="eb"/>
    <trip id="10" depart="30.00" from="be" to="eh"/>
    <trip id="11" depart="33.00" from="be" to="ef"/>
    <trip id="12" depart="36.00" from="de" to="ef"/>
    <trip id="13" depart="39.00" from="fe" to="ed"/>
    <trip id="14" depart="42.00" from="fe" to="eb"/>
    <trip id="15" depart="45.00" from="de" to="eh"/>
    <trip id="17" depart="51.00" from="he" to="ef"/>
    <trip id="18" depart="54.00" from="be" to="ed"/>
    <trip id="21" depart="63.00" from="fe" to="eh"/>
    <trip id="22" depart="66.00" from="fe" to="eh"/>
    <trip id="23" depart="69.00" from="de" to="eb"/>
    <trip id="24" depart="72.00" from="he" to="ed"/>
    <trip id="26" depart="78.00" from="de" to="eh"/>
    <trip id="28" depart="84.00" from="fe" to="ed"/>
    <trip id="30" depart="90.00" from="be" to="ef"/>
    <trip id="31" depart="93.00" from="he" to="ed"/>
    <trip id="32" depart="96.00" from="fe" to="eb"/>
    <trip id="33" depart="99.00" from="de" to="ef"/>
    <trip id="34" depart="102.00" from="de" to="ef"/>
    <trip id="36" depart="108.00" from="fe" to="ed"/>
    <trip id="37" depart="111.00" from="he" to="eb"/>
    <trip id="38" depart="114.00" from="fe" to="eh"/>
    <trip id="39" depart="117.00" from="fe" to="eh"/>
    <trip id="43" depart="129.00" from="de" to="ef"/>
    <trip id="44" depart="132.00" from="de" to="eh"/>
    <trip id="45" depart="135.00" from="be" to="ef"/>
    <trip id="46" depart="138.00" from="fe" to="eb"/>
    <trip id="47" depart="141.00" from="be" to="ed"/>
    <trip id="48" depart="144.00" from="he" to="ed"/>
    <trip id="50" depart="150.00" from="fe" to="ed"/>
    <trip id="53" depart="159.00" from="he" to="ef"/>
    <trip id="54" depart="162.00" from="fe" to="eh"/>
    <trip id="55" depart="165.00" from="fe" to="eh"/>
    <trip id="56" depart="168.00" from="be" to="ef"/>
    <trip id="58" depart="174.00" from="de" to="eb"/>
    <trip id="59" depart="177.00" from="fe" to="ed"/>
    <trip id="60" depart="180.00" from="fe" to="eb"/>
    <trip id="62" depart="186.00" from="he" to="eb"/>
    <trip id="64" depart="192.00" from="be" to="ef"/>
    <trip id="66" depart="198.00" from="he" to="ed"/>
    <trip id="69" depart="207.00" from="he" to="ef"/>
    <trip id="70" depart="210.00" from="he" to="ed"/>
    <trip id="71" depart="213.00" from="fe" to="eh"/>
    <trip id="72" depart="216.00" from="he" to="ed"/>
    <trip id="73" depart="219.00" from="be" to="ef"/>
    <trip id="74" depart="222.00" from="fe" to="ed"/>
    <trip id="75" depart="225.00" from="he" to="ef"/>
    <trip id="76" depart="228.00" from="be" to="ed"/>
    <trip id="77" depart="231.00" from="de" to="eh"/>
    <trip id="78" depart="234.00" from="de" to="ef"/>
    <trip id="80" depart="240.00" from="de" to="ef"/>
    <trip id="81" depart="243.00" from="fe" to="ed"/>
    <trip id="82" depart="246.00" from="de" to="eb"/>
    <trip id="83" depart="249.00" from="de" to="eb"/>
    <trip id="84" depart="252.00" from="de" to="eb"/>
    <trip id="86" depart="258.00" from="fe" to="ed"/>
    <trip id="87" depart="261.00" from="de" to="ef"/>
    <trip id="88" depart="264.00" from="be" to="eh"/>
    <trip id="89" depart="267.00" from="de" to="ef"/>
    <trip id="90" depart="270.00" from="de" to="ef"/>
    <trip id="91" depart="273.00" from="de" to="eb"/>
    <trip id="93" depart="279.00" from="de" to="eh"/>
    <trip id="95" depart="285.00" from="de" to="eh"/>
    <trip id="96" depart="288.00" from="he" to="ed"/>
    <trip id="97" depart="291.00" from="he" to="ed"/>
    <trip id="98" depart="294.00" from="fe" to="eb"/>
    <trip id="99" depart="297.00" from="be" to="eh"/>
    <trip id="100" depart="300.00" from="fe" to="ed"/>
    <trip id="101" depart="303.00" from="he" to="ef"/>
    <trip id="102" depart="306.00" from="he" to="ef"/>
    <trip id="103" depart="309.00" from="de" to="ef"/>
    <trip id="105" depart="315.00" from="fe" to="eb"/>
    <trip id="108" depart="324.00" from="be" to="ef"/>
    <trip id="109" depart="327.00" from="de" to="eb"/>
    <trip id="110" depart="330.00" from="he" to="ef"/>
    <trip id="111" depart="333.00" from="de" to="eh"/>
    <trip id="112" depart="336.00" from="fe" to="eb"/>
    <trip id="113" depart="339.00" from="fe" to="eb"/>
    <trip id="114" depart="342.00" from="de" to="eb"/>
    <trip id="115" depart="345.00" from="he" to="eb"/>
    <trip id="118" depart="354.00" from="be" to="eh"/>
    <trip id="119" depart="357.00" from="fe" to="eh"/>
    <trip id="121" depart="363.00" from="de" to="eh"/>
    <trip id="124" depart="372.00" from="de" to="eb"/>
    <trip id="126" depart="378.00" from="be" to="ef"/>
    <trip id="127" depart="381.00" from="fe" to="eh"/>
    <trip id="128" depart="384.00" from="be" to="eh"/>
    <trip id="129" depart="387.00" from="de" to="eb"/>
    <trip id="130" depart="390.00" from="fe" to="eb"/>
    <trip id="131" depart="393.00" from="fe" to="eb"/>
    <trip id="133" depart="399.00" from="de" to="eh"/>
    <trip id="135" depart="405.00" from="be" to="ef"/>
    <trip id="136" depart="408.00" from="be" to="ed"/>
    <trip id="138" depart="414.00" from="fe" to="eh"/>
    <trip id="139" depart="417.00" from="de" to="ef"/>
    <trip id="141" depart="423.00" from="fe" to="ed"/>
    <trip id="142" depart="426.00" from="fe" to="ed"/>
    <trip id="143" depart="429.00" from="be" to="ed"/>
    <trip id="144" depart="432.00" from="fe" to="eb"/>
    <trip id="147" depart="441.00" from="be" to="ef"/>
    <trip id="148" depart="444.00" from="he" to="ef"/>
    <trip id="149" depart="447.00" from="he" to="eb"/>
    <trip id="153" depart="459.00" from="he" to="ed"/>
    <trip id="154" depart="462.00" from="fe" to="eb"/>
    <trip id="155" depart="465.00" from="fe" to="ed"/>
    <trip id="156" depart="468.00" from="fe" to="ed"/>
    <trip id="157" depart="471.00" from="be" to="ef"/>
    <trip id="158" depart="474.00" from="de" to="eb"/>
    <trip id="160" depart="480.00" from="fe" to="eb"/>
    <trip id="162" depart="486.00" from="he" to="eb"/>
    <trip id="163" depart="489.00" from="de" to="ef"/>
    <trip id="165" depart="495.00" from="he" to="ed"/>
    <trip id="166" depart="498.00" from="he" to="eb"/>
    <trip id="169" depart="507.00" from="de" to="eh"/>
    <trip id="172" depart="516.00" from="fe" to="ed"/>
    <trip id="173" depart="519.00" from="de" to="eb"/>
    <trip id="175" depart="525.00" from="be" to="ef"/>
    <trip id="176" depart="528.00" from="be" to="eh"/>
    <trip id="177" depart="531.00" from="fe" to="ed"/>
    <trip id="179" depart="537.00" from="fe" to="eb"/>
    <trip id="180" depart="540.00" from="de" to="ef"/>
    <trip id="181" depart="543.00" from="fe" to="eh"/>
    <trip id="182" depart="546.00" from="de" to="ef"/>
    <trip id="183" depart="549.00" from="be" to="ef"/>
    <trip id="184" depart="552.00" from="he" to="ed"/>
    <trip id="187" depart="561.00" from="be" to="ed"/>
    <trip id="188" depart="564.00" from="be" to="ef"/>
    <trip id="190" depart="570.00" from="be" to="eh"/>
    <trip id="192" depart="576.00" from="de" to="eh"/>
    <trip id="194" depart="582.00" from="be" to="eh"/>
    <trip id="195" depart="585.00" from="fe" to="ed"/>
    <trip id="197" depart="591.00" from="fe" to="eb"/>
    <trip id="198" depart="594.00" from="fe" to="eb"/>
    <trip id="199" depart="597.00" from="fe" to="eh"/>
    <trip id="200" depart="600.00" from="de" to="ef"/>
    <trip id="201" depart="603.00" from="de" to="eh"/>
    <trip id="202" depart="606.00" from="fe" to="eh"/>
    <trip id="203" depart="609.00" from="be" to="ed"/>
    <trip id="204" depart="612.00" from="he" to="eb"/>
    <trip id="206" depart="618.00" from="be" to="ed"/>
    <trip id="207" depart="621.00" from="he" to="ed"/>
    <trip id="209" depart="627.00" from="de" to="eh"/>
    <trip id="212" depart="636.00" from="be" to="eh"/>
    <trip id="213" depart="639.00" from="he" to="ed"/>
    <trip id="214" depart="642.00" from="de" to="eh"/>
    <trip id="215" depart="645.00" from="he" to="eb"/>
    <trip id="216" depart="648.00" from="fe" to="ed"/>
    <trip id="217" depart="651.00" from="fe" to="eb"/>
    <trip id="220" depart="660.00" from="fe" to="eb"/>
    <trip id="221" depart="663.00" from="de" to="eh"/>
    <trip id="222" depart="666.00" from="de" to="eb"/>
    <trip id="223" depart="669.00" from="be" to="ef"/>
    <trip id="224" depart="672.00" from="fe" to="ed"/>
    <trip id="229" depart="687.00" from="fe" to="eh"/>
    <trip id="231" depart="693.00" from="he" to="eb"/>
    <trip id="232" depart="696.00" from="be" to="ef"/>
    <trip id="233" depart="699.00" from="be" to="eh"/>
    <trip id="234" depart="702.00" from="be" to="ef"/>
    <trip id="235" depart="705.00" from="be" to="eh"/>
    <trip id="236" depart="708.00" from="de" to="eb"/>
    <trip id="237" depart="711.00" from="be" to="ef"/>
    <trip id="238" depart="714.00" from="fe" to="eh"/>
    <trip id="240" depart="720.00" from="de" to="eb"/>
    <trip id="241" depart="723.00" from="be" to="ef"/>
    <trip id="242" depart="726.00" from="fe" to="eb"/>
    <trip id="243" depart="729.00" from="de" to="eb"/>
    <trip id="244" depart="732.00" from="be" to="ef"/>
    <trip id="247" depart="741.00" from="de" to="eb"/>
    <trip id="249" depart="747.00" from="be" to="eh"/>
    <trip id="250" depart="750.00" from="he" to="ef"/>
    <trip id="252" depart="756.00" from="be" to="eh"/>
    <trip id="253" depart="759.00" from="de" to="eh"/>
    <trip id="254" depart="762.00" from="de" to="ef"/>
    <trip id="255" depart="765.00" from="fe" to="eh"/>
    <trip id="256" depart="768.00" from="fe" to="eb"/>
    <trip id="257" depart="771.00" from="be" to="eh"/>
    <trip id="258" depart="774.00" from="be" to="eh"/>
    <trip id="259" depart="777.00" from="he" to="ed"/>
    <trip id="261" depart="783.00" from="he" to="ed"/>
    <trip id="262" depart="786.00" from="de" to="eb"/>
    <trip id="263" depart="789.00" from="de" to="eh"/>
    <trip id="264" depart="792.00" from="be" to="ef"/>
    <trip id="265" depart="795.00" from="de" to="ef"/>
    <trip id="267" depart="801.00" from="be" to="ef"/>
    <trip id="269" depart="807.00" from="he" to="ed"/>
    <trip id="270" depart="810.00" from="he" to="ed"/>
    <trip id="271" depart="813.00" from="he" to="ef"/>
    <trip id="272" depart="816.00" from="be" to="ef"/>
    <trip id="273" depart="819.00" from="be" to="ed"/>
    <trip id="274" depart="822.00" from="de" to="eb"/>
    <trip id="275" depart="825.00" from="be" to="ef"/>
    <trip id="276" depart="828.00" from="be" to="ed"/>
    <trip id="277" depart="831.00" from="fe" to="ed"/>
    <trip id="278" depart="834.00" from="he" to="ef"/>
    <trip id="280" depart="840.00" from="de" to="eh"/>
    <trip id="284" depart="852.00" from="be" to="ed"/>
    <trip id="285" depart="855.00" from="he" to="ed"/>
    <trip id="286" depart="858.00" from="de" to="eb"/>
    <trip id="287" depart="861.00" from="de" to="eh"/>
    <trip id="288" depart="864.00" from="be" to="ed"/>
    <trip id="289" depart="867.00" from="be" to="eh"/>
    <trip id="290" depart="870.00" from="de" to="eb"/>
    <trip id="291" depart="873.00" from="de" to="eb"/>
    <trip id="292" depart="876.00" from="he" to="ef"/>
    <trip id="293" depart="879.00" from="be" to="eh"/>
    <trip id="294" depart="882.00" from="be" to="eh"/>
    <trip id="295" depart="885.00" from="be" to="ef"/>
    <trip id="297" depart="891.00" from="be" to="ef"/>
    <trip id="299" depart="897.00" from="de" to="eb"/>
    <trip id="300" depart="900.00" from="de" to="ef"/>
    <trip id="301" depart="903.00" from="de" to="eh"/>
    <trip id="302" depart="906.00" from="de" to="eb"/>
    <trip id="303" depart="909.00" from="he" to="ef"/>
    <trip id="304" depart="912.00" from="be" to="eh"/>
    <trip id="305" depart="915.00" from="fe" to="eb"/>
    <trip id="306" depart="918.00" from="de" to="ef"/>
    <trip id="307" depart="921.00" from="be" to="ed"/>
    <trip id="309" depart="927.00" from="de" to="eh"/>
    <trip id="310" depart="930.00" from="be" to="ed"/>
    <trip id="312" depart="936.00" from="fe" to="ed"/>
    <trip id="313" depart="939.00" from="he" to="ef"/>
    <trip id="314" depart="942.00" from="fe" to="ed"/>
    <trip id="315" depart="945.00" from="de" to="ef"/>
    <trip id="317" depart="951.00" from="be" to="eh"/>
    <trip id="318" depart="954.00" from="he" to="ef"/>
    <trip id="320" depart="960.00" from="de" to="ef"/>
    <trip id="321" depart="963.00" from="be" to="ed"/>
    <trip id="322" depart="966.00" from="fe" to="eh"/>
    <trip id="323" depart="969.00" from="he" to="ef"/>
    <trip id="327" depart="981.00" from="be" to="eh"/>
    <trip id="328" depart="984.00" from="de" to="eb"/>
    <trip id="330" depart="990.00" from="he" to="ef"/>
    <trip id="331" depart="993.00" from="he" to="ef"/>
    <trip id="332" depart="996.00" from="fe" to="ed"/>
    <trip id="333" depart="999.00" from="be" to="eh"/>
    <trip id="334" depart="1002.00" from="be" to="ef"/>
    <trip id="335" depart="1005.00" from="be" to="ef"/>
    <trip id="336" depart="1008.00" from="fe" to="eh"/>
    <trip id="337" depart="1011.00" from="be" to="eh"/>
    <trip id="338" depart="1014.00" from="be" to="eh"/>
    <trip id="339" depart="1017.00" from="fe" to="eb"/>
    <trip id="342" depart="1026.00" from="be" to="ed"/>
    <trip id="343" depart="1029.00" from="fe" to="ed"/>
    <trip id="344" depart="1032.00" from="fe" to="eh"/>
    <trip id="346" depart="1038.00" from="be" to="ed"/>
    <trip id="347" depart="1041.00" from="he" to="ed"/>
    <trip id="349" depart="1047.00" from="fe" to="eh"/>
    <trip id="350" depart="1050.00" from="de" to="eh"/>
    <trip id="351" depart="1053.00" from="he" to="ef"/>
    <trip id="352" depart="1056.00" from="fe" to="eh"/>
    <trip id="353" depart="1059.00" from="be" to="ef"/>
    <trip id="354" depart="1062.00" from="de" to="ef"/>
    <trip id="355" depart="1065.00" from="de" to="ef"/>
    <trip id="356" depart="1068.00" from="be" to="ed"/>
    <trip id="357" depart="1071.00" from="fe" to="eh"/>
    <trip id="360" depart="1080.00" from="de" to="eh"/>
    <trip id="361" depart="1083.00" from="be" to="eh"/>
    <trip id="362" depart="1086.00" from="de" to="eh"/>
    <trip id="363" depart="1089.00" from="de" to="eb"/>
    <trip id="364" depart="1092.00" from="de" to="eh"/>
    <trip id="365" depart="1095.00" from="he" to="eb"/>
    <trip id="367" depart="1101.00" from="de" to="eh"/>
    <trip id="368" depart="1104.00" from="de" to="eb"/>
    <trip id="369" depart="1107.00" from="fe" to="eh"/>
    <trip id="371" depart="1113.00" from="fe" to="ed"/>
    <trip id="372" depart="1116.00" from="be" to="eh"/>
    <trip id="373" depart="1119.00" from="be" to="ef"/>
    <trip id="374" depart="1122.00" from="fe" to="ed"/>
    <trip id="377" depart="1131.00" from="fe" to="ed"/>
    <trip id="378" depart="1134.00" from="he" to="ed"/>
    <trip id="379" depart="1137.00" from="fe" to="ed"/>
    <trip id="380" depart="1140.00" from="be" to="eh"/>
    <trip id="381" depart="1143.00" from="he" to="ef"/>
    <trip id="382" depart="1146.00" from="de" to="ef"/>
    <trip id="383" depart="1149.00" from="be" to="ef"/>
    <trip id="384" depart="1152.00" from="fe" to="eb"/>
    <trip id="385" depart="1155.00" from="he" to="ed"/>
    <trip id="386" depart="1158.00" from="fe" to="eh"/>
    <trip id="387" depart="1161.00" from="be" to="ed"/>
    <trip id="388" depart="1164.00" from="de" to="eb"/>
    <trip id="389" depart="1167.00" from="he" to="ed"/>
    <trip id="391" depart="1173.00" from="be" to="eh"/>
    <trip id="392" depart="1176.00" from="fe" to="ed"/>
    <trip id="393" depart="1179.00" from="de" to="ef"/>
    <trip id="395" depart="1185.00" from="fe" to="ed"/>
    <trip id="396" depart="1188.00" from="be" to="eh"/>
    <trip id="397" depart="1191.00" from="he" to="ef"/>
    <trip id="399" depart="1197.00" from="he" to="ed"/>
    <trip id="400" depart="1200.00" from="be" to="ef"/>
    <trip id="401" depart="1203.00" from="de" to="ef"/>
    <trip id="402" depart="1206.00" from="he" to="eb"/>
    <trip id="403" depart="1209.00" from="fe" to="ed"/>
    <trip id="405" depart="1215.00" from="he" to="ed"/>
    <trip id="406" depart="1218.00" from="fe" to="eh"/>
    <trip id="407" depart="1221.00" from="fe" to="eh"/>
    <trip id="408" depart="1224.00" from="de" to="ef"/>
    <trip id="409" depart="1227.00" from="he" to="ed"/>
    <trip id="412" depart="1236.00" from="be" to="eh"/>
    <trip id="413" depart="1239.00" from="be" to="ed"/>
    <trip id="414" depart="1242.00" from="fe" to="eb"/>
    <trip id="416" depart="1248.00" from="fe" to="eb"/>
    <trip id="417" depart="1251.00" from="he" to="ef"/>
    <trip id="419" depart="1257.00" from="be" to="eh"/>
    <trip id="420" depart="1260.00" from="he" to="ed"/>
    <trip id="421" depart="1263.00" from="fe" to="eb"/>
    <trip id="423" depart="1269.00" from="be" to="ef"/>
    <trip id="424" depart="1272.00" from="de" to="eh"/>
    <trip id="425" depart="1275.00" from="be" to="eh"/>
    <trip id="426" depart="1278.00" from="be" to="eh"/>
    <trip id="427" depart="1281.00" from="fe" to="eb"/>
    <trip id="428" depart="1284.00" from="fe" to="eb"/>
    <trip id="429" depart="1287.00" from="de" to="eb"/>
    <trip id="430" depart="1290.00" from="fe" to="eb"/>
    <trip id="431" depart="1293.00" from="he" to="ed"/>
    <trip id="432" depart="1296.00" from="de" to="ef"/>
    <trip id="433" depart="1299.00" from="be" to="ef"/>
    <trip id="435" depart="1305.00" from="be" to="ef"/>
    <trip id="436" depart="1308.00" from="he" to="ed"/>
    <trip id="437" depart="1311.00" from="he" to="ef"/>
    <trip id="438" depart="1314.00" from="be" to="ef"/>
    <trip id="439" depart="1317.00" from="fe" to="ed"/>
    <trip id="440" depart="1320.00" from="fe" to="eb"/>
    <trip id="442" depart="1326.00" from="fe" to="eb"/>
    <trip id="443" depart="1329.00" from="fe" to="eb"/>
    <trip id="445" depart="1335.00" from="he" to="ef"/>
    <trip id="447" depart="1341.00" from="he" to="ed"/>
    <trip id="448" depart="1344.00" from="fe" to="eh"/>
    <trip id="449" depart="1347.00" from="he" to="ef"/>
    <trip id="450" depart="1350.00" from="de" to="ef"/>
    <trip id="451" depart="1353.00" from="he" to="eb"/>
    <trip id="452" depart="1356.00" from="be" to="eh"/>
    <trip id="453" depart="1359.00" from="he" to="ef"/>
    <trip id="454" depart="1362.00" from="he" to="eb"/>
    <trip id="456" depart="1368.00" from="be" to="ef"/>
    <trip id="457" depart="1371.00" from="be" to="ef"/>
    <trip id="459" depart="1377.00" from="he" to="ef"/>
    <trip id="460" depart="1380.00" from="be" to="eh"/>
    <trip id="461" depart="1383.00" from="fe" to="ed"/>
    <trip id="464" depart="1392.00" from="de" to="eh"/>
    <trip id="465" depart="1395.00" from="fe" to="ed"/>
    <trip id="466" depart="1398.00" from="de" to="eb"/>
    <trip id="467" depart="1401.00" from="be" to="ed"/>
    <trip id="468" depart="1404.00" from="be" to="ed"/>
    <trip id="469" depart="1407.00" from="be" to="ed"/>
    <trip id="470" depart="1410.00" from="be" to="eh"/>
    <trip id="471" depart="1413.00" from="de" to="eh"/>
    <trip id="472" depart="1416.00" from="be" to="ed"/>
    <trip id="473" depart="1419.00" from="he" to="eb"/>
    <trip id="474" depart="1422.00" from="he" to="eb"/>
    <trip id="475" depart="1425.00" from="be" to="ed"/>
    <trip id="476" depart="1428.00" from="de" to="eb"/>
    <trip id="477" depart="1431.00" from="he" to="eb"/>
    <trip id="478" depart="1434.00" from="be" to="ed"/>
    <trip id="479" depart="1437.00" from="be" to="eh"/>
    <trip id="481" depart="1443.00" from="he" to="ed"/>
    <trip id="482" depart="1446.00" from="he" to="eb"/>
    <trip id="483" depart="1449.00" from="fe" to="ed"/>
    <trip id="484" depart="1452.00" from="he" to="ef"/>
    <trip id="486" depart="1458.00" from="he" to="ef"/>
    <trip id="488" depart="1464.00" from="be" to="eh"/>
    <trip id="490" depart="1470.00" from="he" to="eb"/>
    <trip id="492" depart="1476.00" from="fe" to="eb"/>
    <trip id="493" depart="1479.00" from="de" to="eb"/>
    <trip id="494" depart="1482.00" from="fe" to="eh"/>
    <trip id="495" depart="1485.00" from="de" to="eh"/>
    <trip id="496" depart="1488.00" from="be" to="eh"/>
    <trip id="497" depart="1491.00" from="de" to="ef"/>
    <trip id="498" depart="1494.00" from="be" to="eh"/>
    <trip id="499" depart="1497.00" from="be" to="ef"/>
    <trip id="500" depart="1500.00" from="he" to="ef"/>
    <trip id="502" depart="1506.00" from="be" to="ef"/>
    <trip id="503" depart="1509.00" from="fe" to="ed"/>
    <trip id="504" depart="1512.00" from="fe" to="eb"/>
    <trip id="505" depart="1515.00" from="de" to="ef"/>
    <trip id="506" depart="1518.00" from="fe" to="ed"/>
    <trip id="507" depart="1521.00" from="he" to="eb"/>
    <trip id="508" depart="1524.00" from="he" to="ed"/>
    <trip id="510" depart="1530.00" from="fe" to="eb"/>
    <trip id="511" depart="1533.00" from="de" to="eh"/>
    <trip id="512" depart="1536.00" from="de" to="eb"/>
    <trip id="513" depart="1539.00" from="de" to="eb"/>
    <trip id="514" depart="1542.00" from="de" to="ef"/>
    <trip id="516" depart="1548.00" from="he" to="eb"/>
    <trip id="517" depart="1551.00" from="be" to="ed"/>
    <trip id="518" depart="1554.00" from="he" to="eb"/>
    <trip id="519" depart="1557.00" from="he" to="ef"/>
    <trip id="520" depart="1560.00" from="fe" to="eh"/>
    <trip id="521" depart="1563.00" from="he" to="eb"/>
    <trip id="522" depart="1566.00" from="he" to="ed"/>
    <trip id="523" depart="1569.00" from="be" to="ef"/>
    <trip id="525" depart="1575.00" from="he" to="eb"/>
    <trip id="527" depart="1581.00" from="he" to="eb"/>
    <trip id="528" depart="1584.00" from="be" to="eh"/>
    <trip id="529" depart="1587.00" from="fe" to="eh"/>
    <trip id="530" depart="1590.00" from="de" to="ef"/>
    <trip id="531" depart="1593.00" from="he" to="eb"/>
    <trip id="532" depart="1596.00" from="de" to="eh"/>
    <trip id="533" depart="1599.00" from="de" to="eb"/>
    <trip id="534" depart="1602.00" from="de" to="eh"/>
    <trip id="536" depart="1608.00" from="de" to="eh"/>
    <trip id="537" depart="1611.00" from="de" to="eh"/>
    <trip id="539" depart="1617.00" from="fe" to="eh"/>
    <trip id="540" depart="1620.00" from="de" to="eb"/>
    <trip id="541" depart="1623.00" from="fe" to="ed"/>
    <trip id="542" depart="1626.00" from="de" to="eh"/>
    <trip id="543" depart="1629.00" from="be" to="eh"/>
    <trip id="544" depart="1632.00" from="he" to="eb"/>
    <trip id="545" depart="1635.00" from="be" to="ef"/>
    <trip id="547" depart="1641.00" from="he" to="ed"/>
    <trip id="550" depart="1650.00" from="be" to="eh"/>
    <trip id="551" depart="1653.00" from="he" to="ed"/>
    <trip id="552" depart="1656.00" from="de" to="eh"/>
    <trip id="553" depart="1659.00" from="fe" to="eh"/>
    <trip id="554" depart="1662.00" from="fe" to="ed"/>
    <trip id="555" depart="1665.00" from="fe" to="ed"/>
    <trip id="558" depart="1674.00" from="he" to="ed"/>
    <trip id="559" depart="1677.00" from="fe" to="eh"/>
    <trip id="560" depart="1680.00" from="fe" to="ed"/>
    <trip id="562" depart="1686.00" from="be" to="ed"/>
    <trip id="563" depart="1689.00" from="de" to="eh"/>
    <trip id="564" depart="1692.00" from="de" to="eb"/>
    <trip id="565" depart="1695.00" from="he" to="eb"/>
    <trip id="566" depart="1698.00" from="he" to="ed"/>
    <trip id="567" depart="1701.00" from="de" to="eb"/>
    <trip id="568" depart="1704.00" from="fe" to="eb"/>
    <trip id="570" depart="1710.00" from="be" to="ef"/>
    <trip id="571" depart="1713.00" from="fe" to="ed"/>
    <trip id="573" depart="1719.00" from="fe" to="eh"/>
    <trip id="575" depart="1725.00" from="fe" to="eb"/>
    <trip id="576" depart="1728.00" from="de" to="eh"/>
    <trip id="577" depart="1731.00" from="be" to="ed"/>
    <trip id="578" depart="1734.00" from="fe" to="eb"/>
    <trip id="579" depart="1737.00" from="fe" to="eh"/>
    <trip id="580" depart="1740.00" from="be" to="ed"/>
    <trip id="581" depart="1743.00" from="de" to="eh"/>
    <trip id="582" depart="1746.00" from="he" to="ed"/>
    <trip id="583" depart="1749.00" from="he" to="eb"/>
    <trip id="585" depart="1755.00" from="fe" to="ed"/>
    <trip id="587" depart="1761.00" from="be" to="eh"/>
    <trip id="588" depart="1764.00" from="fe" to="ed"/>
    <trip id="589" depart="1767.00" from="fe" to="eh"/>
    <trip id="590" depart="1770.00" from="de" to="ef"/>
    <trip id="591" depart="1773.00" from="be" to="ef"/>
    <trip id="592" depart="1776.00" from="de" to="ef"/>
    <trip id="593" depart="1779.00" from="fe" to="eh"/>
    <trip id="594" depart="1782.00" from="be" to="ef"/>
    <trip id="595" depart="1785.00" from="de" to="eb"/>
    <trip id="598" depart="1794.00" from="de" to="ef"/>
    <trip id="599" depart="1797.00" from="be" to="ef"/>
    <trip id="600" depart="1800.00" from="de" to="ef"/>
    <trip id="602" depart="1806.00" from="fe" to="ed"/>
    <trip id="604" depart="1812.00" from="de" to="eb"/>
    <trip id="605" depart="1815.00" from="de" to="eh"/>
    <trip id="606" depart="1818.00" from="he" to="eb"/>
    <trip id="607" depart="1821.00" from="de" to="eb"/>
    <trip id="609" depart="1827.00" from="be" to="ef"/>
    <trip id="610" depart="1830.00" from="be" to="ef"/>
    <trip id="611" depart="1833.00" from="he" to="ef"/>
    <trip id="612" depart="1836.00" from="fe" to="ed"/>
    <trip id="613" depart="1839.00" from="he" to="eb"/>
    <trip id="614" depart="1842.00" from="de" to="ef"/>
    <trip id="615" depart="1845.00" from="fe" to="eh"/>
    <trip id="616" depart="1848.00" from="fe" to="eb"/>
    <trip id="618" depart="1854.00" from="de" to="eb"/>
    <trip id="619" depart="1857.00" from="fe" to="ed"/>
    <trip id="620" depart="1860.00" from="fe" to="ed"/>
    <trip id="621" depart="1863.00" from="be" to="eh"/>
    <trip id="623" depart="1869.00" from="be" to="ed"/>
    <trip id="624" depart="1872.00" from="he" to="ef"/>
    <trip id="625" depart="1875.00" from="fe" to="eh"/>
    <trip id="626" depart="1878.00" from="fe" to="eh"/>
    <trip id="627" depart="1881.00" from="fe" to="ed"/>
    <trip id="628" depart="1884.00" from="fe" to="eb"/>
    <trip id="629" depart="1887.00" from="he" to="ed"/>
    <trip id="630" depart="1890.00" from="be" to="ef"/>
    <trip id="632" depart="1896.00" from="he" to="eb"/>
    <trip id="633" depart="1899.00" from="be" to="eh"/>
    <trip id="634" depart="1902.00" from="fe" to="ed"/>
    <trip id="635" depart="1905.00" from="fe" to="eh"/>
    <trip id="636" depart="1908.00" from="be" to="eh"/>
    <trip id="637" depart="1911.00" from="be" to="ed"/>
    <trip id="638" depart="1914.00" from="de" to="ef"/>
    <trip id="639" depart="1917.00" from="be" to="ef"/>
    <trip id="640" depart="1920.00" from="fe" to="ed"/>
    <trip id="641" depart="1923.00" from="be" to="ed"/>
    <trip id="642" depart="1926.00" from="fe" to="ed"/>
    <trip id="643" depart="1929.00" from="be" to="ef"/>
    <trip id="644" depart="1932.00" from="he" to="ed"/>
    <trip id="645" depart="1935.00" from="de" to="eh"/>
    <trip id="646" depart="1938.00" from="de" to="eh"/>
    <trip id="647" depart="1941.00" from="he" to="eb"/>
    <trip id="648" depart="1944.00" from="de" to="eh"/>
    <trip id="649" depart="1947.00" from="he" to="ed"/>
    <trip id="650" depart="1950.00" from="de" to="ef"/>
    <trip id="654" depart="1962.00" from="he" to="ed"/>
    <trip id="655" depart="1965.00" from="he" to="ef"/>
    <trip id="657" depart="1971.00" from="he" to="eb"/>
    <trip id="658" depart="1974.00" from="be" to="ed"/>
    <trip id="661" depart="1983.00" from="fe" to="eb"/>
    <trip id="663" depart="1989.00" from="he" to="ed"/>
    <trip id="665" depart="1995.00" from="he" to="ef"/>
    <trip id="666" depart="1998.00" from="be" to="ef"/>
    <trip id="667" depart="2001.00" from="de" to="eh"/>
    <trip id="668" depart="2004.00" from="he" to="ed"/>
    <trip id="670" depart="2010.00" from="be" to="eh"/>
    <trip id="675" depart="2025.00" from="de" to="ef"/>
    <trip id="676" depart="2028.00" from="he" to="ed"/>
    <trip id="677" depart="2031.00" from="fe" to="eh"/>